@ [ MODPATH 5.0 (TREF=   0.000000E+00 ) ]
      1  5.31250000E+02  6.78125000E+03  1.00000005E-03  1.39124813E+01  0.00000000E+00    3   13    1       1
      1  5.37496094E+02  6.75000000E+03  8.82844266E-04  1.39105501E+01  2.97159839E+03    3   14    1       1
      1  5.74682434E+02  6.50000000E+03  4.64728597E-04  1.17076454E+01  2.02419844E+04    3   15    1       1
      1  5.94241699E+02  6.25000000E+03  3.21043743E-04  1.05792885E+01  3.07234160E+04    3   16    1       1
      1  5.98684021E+02  6.00000000E+03  2.47803458E-04  1.04138432E+01  3.80454688E+04    3   17    1       1
      1  5.99476562E+02  5.75000000E+03  2.03541596E-04  9.22826290E+00  4.38694062E+04    3   18    1       1
      1  6.07027466E+02  5.50000000E+03  1.74524655E-04  6.91951418E+00  4.88620117E+04    3   19    1       1
      1  6.15789490E+02  5.25000000E+03  1.54141904E-04  6.06672716E+00  5.29724102E+04    3   20    1       1
      1  6.29049500E+02  5.00000000E+03  1.38523377E-04  3.99769235E+00  5.67587422E+04    3   21    1       1
      1  6.51927612E+02  4.75000000E+03  1.25865670E-04  7.88092375E+00  5.95378555E+04    3   22    1       1
      1  6.91984802E+02  4.50000000E+03  1.15359122E-04  4.73290253E+00  6.23847266E+04    3   23    1       1
      1  7.50000000E+02  4.36519971E+03  1.10078530E-04  5.47482729E+00  6.38161523E+04    4   23    1       1
      1  8.11923096E+02  4.25000000E+03  1.05457933E-04  8.63726044E+00  6.49107852E+04    4   24    1       1
      1  1.00000000E+03  4.04689966E+03  9.61822807E-05  9.38675404E+00  6.70543984E+04    5   24    1       1
      1  1.06468494E+03  4.00000000E+03  9.36928700E-05  1.10132866E+01  6.75563594E+04    5   25    1       1
      1  1.25000000E+03  3.88132983E+03  8.71444572E-05  1.11081314E+01  6.89183672E+04    6   25    1       1
      1  1.50000000E+03  3.82524463E+03  8.01731585E-05  5.24303532E+00  7.10765547E+04    7   25    1       1
      1  1.75000000E+03  3.82658740E+03  7.36313377E-05  5.80031061E+00  7.31014062E+04    8   25    1       1
      1  2.00000000E+03  3.84286792E+03  6.68663852E-05  5.60445642E+00  7.52983750E+04    9   25    1       1
      1  2.25000000E+03  3.86126489E+03  6.04280431E-05  6.76763439E+00  7.73217422E+04   10   25    1       1
      1  2.50000000E+03  3.86081006E+03  5.44246941E-05  1.78228021E+00  8.00485938E+04   11   25    1       1
      1  2.75000000E+03  3.88525537E+03  4.88279438E-05  6.46414578E-01  8.29578125E+04   12   25    1       1
      1  3.00000000E+03  3.90842505E+03  4.37282615E-05  3.47116053E-01  8.58643125E+04   13   25    1       1
      1  3.25000000E+03  3.89367822E+03  3.92093716E-05  3.35250705E-01  8.86032500E+04   14   25    1       1
      1  3.50000000E+03  3.85885889E+03  3.54759140E-05  6.10932410E-01  9.08977734E+04   15   25    1       1
      2  5.31250000E+02  6.78125000E+03  3.33333343E-01  1.93896866E+01  0.00000000E+00    3   13    1       1
      2  5.37496094E+02  6.75000000E+03  2.94275701E-01  1.87459755E+01  2.97159839E+03    3   14    1       1
      2  5.74682434E+02  6.50000000E+03  1.54904634E-01  1.45805950E+01  2.02419844E+04    3   15    1       1
      2  5.94241699E+02  6.25000000E+03  1.07012779E-01  1.26691408E+01  3.07234160E+04    3   16    1       1
      2  5.98684021E+02  6.00000000E+03  8.25973675E-02  1.20231791E+01  3.80454688E+04    3   17    1       1
      2  5.99476562E+02  5.75000000E+03  6.78397864E-02  1.06115446E+01  4.38694062E+04    3   18    1       1
      2  6.07027466E+02  5.50000000E+03  5.81652448E-02  8.22016907E+00  4.88620117E+04    3   19    1       1
      2  6.15789490E+02  5.25000000E+03  5.13737649E-02  7.23876429E+00  5.29724102E+04    3   20    1       1
      2  6.29049500E+02  5.00000000E+03  4.61669266E-02  5.12493467E+00  5.67587422E+04    3   21    1       1
      2  6.51927612E+02  4.75000000E+03  4.19495814E-02  8.71958637E+00  5.95378555E+04    3   22    1       1
      2  6.91984802E+02  4.50000000E+03  3.84457409E-02  5.59766102E+00  6.23847266E+04    3   23    1       1
      2  7.50000000E+02  4.36519971E+03  3.66881303E-02  6.24821424E+00  6.38161523E+04    4   23    1       1
      2  8.11923096E+02  4.25000000E+03  3.51480320E-02  9.25552464E+00  6.49107852E+04    4   24    1       1
      2  1.00000000E+03  4.04689966E+03  3.20690610E-02  9.90349674E+00  6.70543984E+04    5   24    1       1
      2  1.06468494E+03  4.00000000E+03  3.12689021E-02  1.14413567E+01  6.75563594E+04    5   25    1       1
      2  1.25000000E+03  3.88132983E+03  2.90811937E-02  1.14844484E+01  6.89183672E+04    6   25    1       1
      2  1.50000000E+03  3.82524463E+03  2.67561544E-02  5.72059536E+00  7.10765547E+04    7   25    1       1
      2  1.75000000E+03  3.82658740E+03  2.45729145E-02  6.20314217E+00  7.31014062E+04    8   25    1       1
      2  2.00000000E+03  3.84286792E+03  2.23205127E-02  5.95596600E+00  7.52983750E+04    9   25    1       1
      2  2.25000000E+03  3.86126489E+03  2.01706383E-02  7.04534101E+00  7.73217422E+04   10   25    1       1
      2  2.50000000E+03  3.86081006E+03  1.81665625E-02  2.10850286E+00  8.00485938E+04   11   25    1       1
      2  2.75000000E+03  3.88525537E+03  1.62979160E-02  9.47436392E-01  8.29578125E+04   12   25    1       1
      2  3.00000000E+03  3.90842505E+03  1.45950289E-02  6.12014771E-01  8.58643125E+04   13   25    1       1
      2  3.25000000E+03  3.89367822E+03  1.30872019E-02  5.61777234E-01  8.86032500E+04   14   25    1       1
      2  3.50000000E+03  3.85885889E+03  1.18413493E-02  7.98100829E-01  9.08977734E+04   15   25    1       1
      3  5.31250000E+02  6.78125000E+03  6.66666687E-01  2.48833733E+01  0.00000000E+00    3   13    1       1
      3  5.37496094E+02  6.75000000E+03  5.88551283E-01  2.35959492E+01  2.97159839E+03    3   14    1       1
      3  5.74682434E+02  6.50000000E+03  3.09808999E-01  1.74621849E+01  2.02419844E+04    3   15    1       1
      3  5.94241699E+02  6.25000000E+03  2.14025304E-01  1.47652769E+01  3.07234160E+04    3   16    1       1
      3  5.98684021E+02  6.00000000E+03  1.65194437E-01  1.36373520E+01  3.80454688E+04    3   17    1       1
      3  5.99476562E+02  5.75000000E+03  1.35679334E-01  1.19989843E+01  4.38694062E+04    3   18    1       1
      3  6.07027466E+02  5.50000000E+03  1.16330318E-01  9.52473450E+00  4.88620117E+04    3   19    1       1
      3  6.15789490E+02  5.25000000E+03  1.02747403E-01  8.41432571E+00  5.29724102E+04    3   20    1       1
      3  6.29049500E+02  5.00000000E+03  9.23337340E-02  6.25556660E+00  5.67587422E+04    3   21    1       1
      3  6.51927612E+02  4.75000000E+03  8.38990211E-02  9.56077003E+00  5.95378555E+04    3   22    1       1
      3  6.91984802E+02  4.50000000E+03  7.68913180E-02  6.46501827E+00  6.23847266E+04    3   23    1       1
      3  7.50000000E+02  4.36519971E+03  7.33761266E-02  7.02392578E+00  6.38161523E+04    4   23    1       1
      3  8.11923096E+02  4.25000000E+03  7.02960640E-02  9.87564945E+00  6.49107852E+04    4   24    1       1
      3  1.00000000E+03  4.04689966E+03  6.41381815E-02  1.04217949E+01  6.70543984E+04    5   24    1       1
      3  1.06468494E+03  4.00000000E+03  6.25378713E-02  1.18707142E+01  6.75563594E+04    5   25    1       1
      3  1.25000000E+03  3.88132983E+03  5.81623875E-02  1.18618965E+01  6.89183672E+04    6   25    1       1
      3  1.50000000E+03  3.82524463E+03  5.35123348E-02  6.19959116E+00  7.10765547E+04    7   25    1       1
      3  1.75000000E+03  3.82658740E+03  4.91458885E-02  6.60718536E+00  7.31014062E+04    8   25    1       1
      3  2.00000000E+03  3.84286792E+03  4.46411483E-02  6.30853367E+00  7.52983750E+04    9   25    1       1
      3  2.25000000E+03  3.86126489E+03  4.03414145E-02  7.32388401E+00  7.73217422E+04   10   25    1       1
      3  2.50000000E+03  3.86081006E+03  3.63332368E-02  2.43570781E+00  8.00485938E+04   11   25    1       1
      3  2.75000000E+03  3.88525537E+03  3.25959362E-02  1.24936473E+00  8.29578125E+04   12   25    1       1
      3  3.00000000E+03  3.90842505E+03  2.91901529E-02  8.77711296E-01  8.58643125E+04   13   25    1       1
      3  3.25000000E+03  3.89367822E+03  2.61744894E-02  7.88985968E-01  8.86032500E+04   14   25    1       1
      3  3.50000000E+03  3.85885889E+03  2.36827787E-02  9.85832930E-01  9.08977734E+04   15   25    1       1
      4  5.31250000E+02  6.78125000E+03  9.99000013E-01  3.03605785E+01  0.00000000E+00    3   13    1       1
      4  5.37496094E+02  6.75000000E+03  8.81944120E-01  2.84313736E+01  2.97159839E+03    3   14    1       1
      4  5.74682434E+02  6.50000000E+03  4.64249015E-01  2.03351364E+01  2.02419844E+04    3   15    1       1
      4  5.94241699E+02  6.25000000E+03  3.20717037E-01  1.68551292E+01  3.07234160E+04    3   16    1       1
      4  5.98684021E+02  6.00000000E+03  2.47543946E-01  1.52466869E+01  3.80454688E+04    3   17    1       1
      4  5.99476562E+02  5.75000000E+03  2.03315526E-01  1.33822651E+01  4.38694062E+04    3   18    1       1
      4  6.07027466E+02  5.50000000E+03  1.74320981E-01  1.08253880E+01  4.88620117E+04    3   19    1       1
      4  6.15789490E+02  5.25000000E+03  1.53966993E-01  9.58636189E+00  5.29724102E+04    3   20    1       1
      4  6.29049500E+02  5.00000000E+03  1.38362110E-01  7.38280821E+00  5.67587422E+04    3   21    1       1
      4  6.51927612E+02  4.75000000E+03  1.25722706E-01  1.03994322E+01  5.95378555E+04    3   22    1       1
      4  6.91984802E+02  4.50000000E+03  1.15221694E-01  7.32977676E+00  6.23847266E+04    3   23    1       1
      4  7.50000000E+02  4.36519971E+03  1.09954156E-01  7.79731226E+00  6.38161523E+04    4   23    1       1
      4  8.11923096E+02  4.25000000E+03  1.05338529E-01  1.04939117E+01  6.49107852E+04    4   24    1       1
      4  1.00000000E+03  4.04689966E+03  9.61109400E-02  1.09385357E+01  6.70543984E+04    5   24    1       1
      4  1.06468494E+03  4.00000000E+03  9.37128738E-02  1.22987814E+01  6.75563594E+04    5   25    1       1
      4  1.25000000E+03  3.88132983E+03  8.71562883E-02  1.22382116E+01  6.89183672E+04    6   25    1       1
      4  1.50000000E+03  3.82524463E+03  8.01881552E-02  6.67714834E+00  7.10765547E+04    7   25    1       1
      4  1.75000000E+03  3.82658740E+03  7.36450255E-02  7.01001453E+00  7.31014062E+04    8   25    1       1
      4  2.00000000E+03  3.84286792E+03  6.68946728E-02  6.66004133E+00  7.52983750E+04    9   25    1       1
      4  2.25000000E+03  3.86126489E+03  6.04515597E-02  7.60158968E+00  7.73217422E+04   10   25    1       1
      4  2.50000000E+03  3.86081006E+03  5.44453226E-02  2.76192951E+00  8.00485938E+04   11   25    1       1
      4  2.75000000E+03  3.88525537E+03  4.88449819E-02  1.55038571E+00  8.29578125E+04   12   25    1       1
      4  3.00000000E+03  3.90842505E+03  4.37414199E-02  1.14260936E+00  8.58643125E+04   13   25    1       1
      4  3.25000000E+03  3.89367822E+03  3.92224528E-02  1.01551199E+00  8.86032500E+04   14   25    1       1
      4  3.50000000E+03  3.85885889E+03  3.54886167E-02  1.17300081E+00  9.08977734E+04   15   25    1       1
      5  5.93750000E+02  6.78125000E+03  1.00000005E-03  1.39124813E+01  0.00000000E+00    3   13    1       1
      5  5.99427307E+02  6.75000000E+03  8.82844266E-04  1.39105501E+01  2.97159839E+03    3   14    1       1
      5  6.32716797E+02  6.50000000E+03  4.64728597E-04  1.17076454E+01  2.02419844E+04    3   15    1       1
      5  6.49379639E+02  6.25000000E+03  3.21043743E-04  1.05792885E+01  3.07234160E+04    3   16    1       1
      5  6.51681580E+02  6.00000000E+03  2.47803458E-04  1.04138432E+01  3.80454688E+04    3   17    1       1
      5  6.49634949E+02  5.75000000E+03  2.03541596E-04  9.22826290E+00  4.38694062E+04    3   18    1       1
      5  6.53009583E+02  5.50000000E+03  1.74524655E-04  6.91951418E+00  4.88620117E+04    3   19    1       1
      5  6.58847107E+02  5.25000000E+03  1.54141904E-04  6.06672716E+00  5.29724102E+04    3   20    1       1
      5  6.71880005E+02  5.00000000E+03  1.38523377E-04  3.99769235E+00  5.67587422E+04    3   21    1       1
      5  6.94291626E+02  4.75000000E+03  1.25865670E-04  7.88092375E+00  5.95378555E+04    3   22    1       1
      5  7.34597717E+02  4.50000000E+03  1.15359122E-04  4.73290253E+00  6.23847266E+04    3   23    1       1
      5  7.50000000E+02  4.46481885E+03  1.14002658E-04  5.47491026E+00  6.27486055E+04    4   23    1       1
      5  8.67523376E+02  4.25000000E+03  1.05674146E-04  8.63726425E+00  6.46784531E+04    4   24    1       1
      5  1.00000000E+03  4.10893066E+03  9.94276998E-05  9.38680649E+00  6.61096250E+04    5   24    1       1
      5  1.15266101E+03  4.00000000E+03  9.41095932E-05  1.10132923E+01  6.72142344E+04    5   25    1       1
      5  1.25000000E+03  3.93874121E+03  9.08183429E-05  1.11081791E+01  6.78890391E+04    6   25    1       1
      5  1.50000000E+03  3.88246216E+03  8.35292449E-05  5.24309540E+00  7.00472266E+04    7   25    1       1
      5  1.75000000E+03  3.89754492E+03  7.67053498E-05  5.80036116E+00  7.20720781E+04    8   25    1       1
      5  2.00000000E+03  3.93033350E+03  6.96738716E-05  5.60450077E+00  7.42690469E+04    9   25    1       1
      5  2.25000000E+03  3.95709766E+03  6.29832866E-05  6.76766968E+00  7.62924141E+04   10   25    1       1
      5  2.50000000E+03  3.97559473E+03  5.67279640E-05  1.78232169E+00  7.90192656E+04   11   25    1       1
      5  2.66682178E+03  4.00000000E+03  5.27596603E-05  6.46487415E-01  8.09616172E+04   11   24    1       1
      5  2.75000000E+03  4.01352832E+03  5.07731056E-05  1.49079287E+00  8.19370859E+04   12   24    1       1
      5  3.00000000E+03  4.05132666E+03  4.55557383E-05  1.33018005E+00  8.46245078E+04   13   24    1       1
      5  3.25000000E+03  4.04615137E+03  4.11370784E-05  1.60326350E+00  8.70055703E+04   14   24    1       1
      5  3.50000000E+03  4.01244580E+03  3.71836359E-05  1.17347598E+00  8.92682344E+04   15   24    1       1
      6  5.93750000E+02  6.78125000E+03  3.33333343E-01  1.93896866E+01  0.00000000E+00    3   13    1       1
      6  5.99427307E+02  6.75000000E+03  2.94275701E-01  1.87459755E+01  2.97159839E+03    3   14    1       1
      6  6.32716797E+02  6.50000000E+03  1.54904634E-01  1.45805950E+01  2.02419844E+04    3   15    1       1
      6  6.49379639E+02  6.25000000E+03  1.07012779E-01  1.26691408E+01  3.07234160E+04    3   16    1       1
      6  6.51681580E+02  6.00000000E+03  8.25973675E-02  1.20231791E+01  3.80454688E+04    3   17    1       1
      6  6.49634949E+02  5.75000000E+03  6.78397864E-02  1.06115446E+01  4.38694062E+04    3   18    1       1
      6  6.53009583E+02  5.50000000E+03  5.81652448E-02  8.22016907E+00  4.88620117E+04    3   19    1       1
      6  6.58847107E+02  5.25000000E+03  5.13737649E-02  7.23876429E+00  5.29724102E+04    3   20    1       1
      6  6.71880005E+02  5.00000000E+03  4.61669266E-02  5.12493467E+00  5.67587422E+04    3   21    1       1
      6  6.94291626E+02  4.75000000E+03  4.19495814E-02  8.71958637E+00  5.95378555E+04    3   22    1       1
      6  7.34597717E+02  4.50000000E+03  3.84457409E-02  5.59766102E+00  6.23847266E+04    3   23    1       1
      6  7.50000000E+02  4.46481885E+03  3.79911214E-02  6.27576399E+00  6.27486055E+04    4   23    1       1
      6  8.67523376E+02  4.25000000E+03  3.52247320E-02  9.25687790E+00  6.46784531E+04    4   24    1       1
      6  1.00000000E+03  4.10893066E+03  3.31333801E-02  9.92069817E+00  6.61096250E+04    5   24    1       1
      6  1.15266101E+03  4.00000000E+03  3.13412733E-02  1.14423504E+01  6.72142344E+04    5   25    1       1
      6  1.25000000E+03  3.93874121E+03  3.02350130E-02  1.14994240E+01  6.78890391E+04    6   25    1       1
      6  1.50000000E+03  3.88246216E+03  2.78177429E-02  5.73960018E+00  7.00472266E+04    7   25    1       1
      6  1.75000000E+03  3.89754492E+03  2.55478993E-02  6.21917343E+00  7.20720781E+04    8   25    1       1
      6  2.00000000E+03  3.93033350E+03  2.32061688E-02  5.96995544E+00  7.42690469E+04    9   25    1       1
      6  2.25000000E+03  3.95709766E+03  2.09710170E-02  7.05639362E+00  7.62924141E+04   10   25    1       1
      6  2.50000000E+03  3.97559473E+03  1.88874211E-02  2.12148643E+00  7.90192656E+04   11   25    1       1
      6  2.66682178E+03  4.00000000E+03  1.75670590E-02  9.70947862E-01  8.09616172E+04   11   24    1       1
      6  2.75000000E+03  4.01352832E+03  1.69062782E-02  1.78720772E+00  8.19370859E+04   12   24    1       1
      6  3.00000000E+03  4.05132666E+03  1.51683409E-02  1.58914566E+00  8.46245078E+04   13   24    1       1
      6  3.25000000E+03  4.04615137E+03  1.36969620E-02  1.82352459E+00  8.70055703E+04   14   24    1       1
      6  3.50000000E+03  4.01244580E+03  1.23816654E-02  1.36470687E+00  8.92682344E+04   15   24    1       1
      7  5.93750000E+02  6.78125000E+03  6.66666687E-01  2.48833733E+01  0.00000000E+00    3   13    1       1
      7  5.99427307E+02  6.75000000E+03  5.88551283E-01  2.35959492E+01  2.97159839E+03    3   14    1       1
      7  6.32716797E+02  6.50000000E+03  3.09808999E-01  1.74621849E+01  2.02419844E+04    3   15    1       1
      7  6.49379639E+02  6.25000000E+03  2.14025304E-01  1.47652769E+01  3.07234160E+04    3   16    1       1
      7  6.51681580E+02  6.00000000E+03  1.65194437E-01  1.36373520E+01  3.80454688E+04    3   17    1       1
      7  6.49634949E+02  5.75000000E+03  1.35679334E-01  1.19989843E+01  4.38694062E+04    3   18    1       1
      7  6.53009583E+02  5.50000000E+03  1.16330318E-01  9.52473450E+00  4.88620117E+04    3   19    1       1
      7  6.58847107E+02  5.25000000E+03  1.02747403E-01  8.41432571E+00  5.29724102E+04    3   20    1       1
      7  6.71880005E+02  5.00000000E+03  9.23337340E-02  6.25556660E+00  5.67587422E+04    3   21    1       1
      7  6.94291626E+02  4.75000000E+03  8.38990211E-02  9.56077003E+00  5.95378555E+04    3   22    1       1
      7  7.34597717E+02  4.50000000E+03  7.68913180E-02  6.46501827E+00  6.23847266E+04    3   23    1       1
      7  7.50000000E+02  4.46481885E+03  7.59820864E-02  7.07902479E+00  6.27486055E+04    4   23    1       1
      7  8.67523376E+02  4.25000000E+03  7.04493001E-02  9.87835312E+00  6.46784531E+04    4   24    1       1
      7  1.00000000E+03  4.10893066E+03  6.62666410E-02  1.04561949E+01  6.61096250E+04    5   24    1       1
      7  1.15266101E+03  4.00000000E+03  6.26824796E-02  1.18726997E+01  6.72142344E+04    5   25    1       1
      7  1.25000000E+03  3.93874121E+03  6.04698025E-02  1.18918447E+01  6.78890391E+04    6   25    1       1
      7  1.50000000E+03  3.88246216E+03  5.56352474E-02  6.23759604E+00  7.00472266E+04    7   25    1       1
      7  1.75000000E+03  3.89754492E+03  5.10955676E-02  6.63924313E+00  7.20720781E+04    8   25    1       1
      7  2.00000000E+03  3.93033350E+03  4.64121252E-02  6.33650732E+00  7.42690469E+04    9   25    1       1
      7  2.25000000E+03  3.95709766E+03  4.19418290E-02  7.34598446E+00  7.62924141E+04   10   25    1       1
      7  2.50000000E+03  3.97559473E+03  3.77746373E-02  2.46166921E+00  7.90192656E+04   11   25    1       1
      7  2.66682178E+03  4.00000000E+03  3.51339281E-02  1.29638219E+00  8.09616172E+04   11   24    1       1
      7  2.75000000E+03  4.01352832E+03  3.38123739E-02  2.08451223E+00  8.19370859E+04   12   24    1       1
      7  3.00000000E+03  4.05132666E+03  3.03365085E-02  1.84888840E+00  8.46245078E+04   13   24    1       1
      7  3.25000000E+03  4.04615137E+03  2.73937676E-02  2.04444671E+00  8.70055703E+04   14   24    1       1
      7  3.50000000E+03  4.01244580E+03  2.47631855E-02  1.55651152E+00  8.92682344E+04   15   24    1       1
      8  5.93750000E+02  6.78125000E+03  9.99000013E-01  3.03605785E+01  0.00000000E+00    3   13    1       1
      8  5.99427307E+02  6.75000000E+03  8.81944120E-01  2.84313736E+01  2.97159839E+03    3   14    1       1
      8  6.32716797E+02  6.50000000E+03  4.64249015E-01  2.03351364E+01  2.02419844E+04    3   15    1       1
      8  6.49379639E+02  6.25000000E+03  3.20717037E-01  1.68551292E+01  3.07234160E+04    3   16    1       1
      8  6.51681580E+02  6.00000000E+03  2.47543946E-01  1.52466869E+01  3.80454688E+04    3   17    1       1
      8  6.49634949E+02  5.75000000E+03  2.03315526E-01  1.33822651E+01  4.38694062E+04    3   18    1       1
      8  6.53009583E+02  5.50000000E+03  1.74320981E-01  1.08253880E+01  4.88620117E+04    3   19    1       1
      8  6.58847107E+02  5.25000000E+03  1.53966993E-01  9.58636189E+00  5.29724102E+04    3   20    1       1
      8  6.71880005E+02  5.00000000E+03  1.38362110E-01  7.38280821E+00  5.67587422E+04    3   21    1       1
      8  6.94291626E+02  4.75000000E+03  1.25722706E-01  1.03994322E+01  5.95378555E+04    3   22    1       1
      8  7.34597717E+02  4.50000000E+03  1.15221694E-01  7.32977676E+00  6.23847266E+04    3   23    1       1
      8  7.50000000E+02  4.46481885E+03  1.13859199E-01  7.87987852E+00  6.27486055E+04    4   23    1       1
      8  8.67523376E+02  4.25000000E+03  1.05568312E-01  1.04979658E+01  6.46784531E+04    4   24    1       1
      8  1.00000000E+03  4.10893066E+03  9.93005335E-02  1.09900856E+01  6.61096250E+04    5   24    1       1
      8  1.15266101E+03  4.00000000E+03  9.39297080E-02  1.23017588E+01  6.72142344E+04    5   25    1       1
      8  1.25000000E+03  3.93874121E+03  9.06140730E-02  1.22830906E+01  6.78890391E+04    6   25    1       1
      8  1.50000000E+03  3.88246216E+03  8.33694860E-02  6.73410130E+00  7.00472266E+04    7   25    1       1
      8  1.75000000E+03  3.89754492E+03  7.65667930E-02  7.05805588E+00  7.20720781E+04    8   25    1       1
      8  2.00000000E+03  3.93033350E+03  6.95486218E-02  6.70196199E+00  7.42690469E+04    9   25    1       1
      8  2.25000000E+03  3.95709766E+03  6.28498942E-02  7.63470888E+00  7.62924141E+04   10   25    1       1
      8  2.50000000E+03  3.97559473E+03  5.66053689E-02  2.80083466E+00  7.90192656E+04   11   25    1       1
      8  2.66682178E+03  4.00000000E+03  5.26482575E-02  1.62084317E+00  8.09616172E+04   11   24    1       1
      8  2.75000000E+03  4.01352832E+03  5.06679080E-02  2.38092756E+00  8.19370859E+04   12   24    1       1
      8  3.00000000E+03  4.05132666E+03  4.54593152E-02  2.10785437E+00  8.46245078E+04   13   24    1       1
      8  3.25000000E+03  4.04615137E+03  4.10496071E-02  2.26470804E+00  8.70055703E+04   14   24    1       1
      8  3.50000000E+03  4.01244580E+03  3.71076763E-02  1.74774253E+00  8.92682344E+04   15   24    1       1
      9  6.56250000E+02  6.78125000E+03  1.00000005E-03  1.39124813E+01  0.00000000E+00    3   13    1       1
      9  6.61358459E+02  6.75000000E+03  8.82844266E-04  1.39105501E+01  2.97159839E+03    3   14    1       1
      9  6.90751160E+02  6.50000000E+03  4.64728597E-04  1.17076454E+01  2.02419844E+04    3   15    1       1
      9  7.04517517E+02  6.25000000E+03  3.21043743E-04  1.05792885E+01  3.07234160E+04    3   16    1       1
      9  7.04679138E+02  6.00000000E+03  2.47803458E-04  1.04138432E+01  3.80454688E+04    3   17    1       1
      9  6.99793335E+02  5.75000000E+03  2.03541596E-04  9.22826290E+00  4.38694062E+04    3   18    1       1
      9  6.98991699E+02  5.50000000E+03  1.74524655E-04  6.91951418E+00  4.88620117E+04    3   19    1       1
      9  7.01904724E+02  5.25000000E+03  1.54141904E-04  6.06672716E+00  5.29724102E+04    3   20    1       1
      9  7.14710510E+02  5.00000000E+03  1.38523377E-04  3.99769235E+00  5.67587422E+04    3   21    1       1
      9  7.36655701E+02  4.75000000E+03  1.25865670E-04  7.88092375E+00  5.95378555E+04    3   22    1       1
      9  7.50000000E+02  4.66981250E+03  1.22291662E-04  4.73305893E+00  6.04764375E+04    4   22    1       1
      9  7.74337036E+02  4.50000000E+03  1.15710020E-04  8.28288651E+00  6.19835938E+04    4   23    1       1
      9  9.22932861E+02  4.25000000E+03  1.06106570E-04  8.63727188E+00  6.41879805E+04    4   24    1       1
      9  1.00000000E+03  4.16899121E+03  1.02555096E-04  9.38685703E+00  6.49808398E+04    5   24    1       1
      9  1.24029810E+03  4.00000000E+03  9.44568601E-05  1.10132971E+01  6.66140234E+04    5   25    1       1
      9  1.25000000E+03  3.99399097E+03  9.41983089E-05  1.11082230E+01  6.66778125E+04    6   25    1       1
      9  1.50000000E+03  3.93752539E+03  8.66722476E-05  5.24315166E+00  6.88360000E+04    7   25    1       1
      9  1.75000000E+03  3.96583081E+03  7.96053646E-05  5.80040884E+00  7.08608516E+04    8   25    1       1
      9  1.93361072E+03  4.00000000E+03  7.42322518E-05  5.60457277E+00  7.24497656E+04    8   24    1       1
      9  2.00000000E+03  4.01534814E+03  7.21464312E-05  4.76768827E+00  7.31308203E+04    9   24    1       1
      9  2.25000000E+03  4.05867969E+03  6.44677348E-05  7.02316618E+00  7.53285156E+04   10   24    1       1
      9  2.50000000E+03  4.09654297E+03  5.71981000E-05  5.08243752E+00  7.78550547E+04   11   24    1       1
      9  2.75000000E+03  4.14595215E+03  5.08815683E-05  1.49079478E+00  8.08322812E+04   12   24    1       1
      9  3.00000000E+03  4.18421533E+03  4.56462367E-05  1.33018160E+00  8.35197031E+04   13   24    1       1
      9  3.25000000E+03  4.19064453E+03  4.12183763E-05  1.60326481E+00  8.59007656E+04   14   24    1       1
      9  3.50000000E+03  4.17180762E+03  3.72605864E-05  1.17347717E+00  8.81634297E+04   15   24    1       1
     10  6.56250000E+02  6.78125000E+03  3.33333343E-01  1.93896866E+01  0.00000000E+00    3   13    1       1
     10  6.61358459E+02  6.75000000E+03  2.94275701E-01  1.87459755E+01  2.97159839E+03    3   14    1       1
     10  6.90751160E+02  6.50000000E+03  1.54904634E-01  1.45805950E+01  2.02419844E+04    3   15    1       1
     10  7.04517517E+02  6.25000000E+03  1.07012779E-01  1.26691408E+01  3.07234160E+04    3   16    1       1
     10  7.04679138E+02  6.00000000E+03  8.25973675E-02  1.20231791E+01  3.80454688E+04    3   17    1       1
     10  6.99793335E+02  5.75000000E+03  6.78397864E-02  1.06115446E+01  4.38694062E+04    3   18    1       1
     10  6.98991699E+02  5.50000000E+03  5.81652448E-02  8.22016907E+00  4.88620117E+04    3   19    1       1
     10  7.01904724E+02  5.25000000E+03  5.13737649E-02  7.23876429E+00  5.29724102E+04    3   20    1       1
     10  7.14710510E+02  5.00000000E+03  4.61669266E-02  5.12493467E+00  5.67587422E+04    3   21    1       1
     10  7.36655701E+02  4.75000000E+03  4.19495814E-02  8.71958637E+00  5.95378555E+04    3   22    1       1
     10  7.50000000E+02  4.66981250E+03  4.07604687E-02  5.64988279E+00  6.04764375E+04    4   22    1       1
     10  7.74337036E+02  4.50000000E+03  3.85744311E-02  9.00970840E+00  6.19835938E+04    4   23    1       1
     10  9.22932861E+02  4.25000000E+03  3.53828929E-02  9.25966835E+00  6.41879805E+04    4   24    1       1
     10  1.00000000E+03  4.16899121E+03  3.42032462E-02  9.93798923E+00  6.49808398E+04    5   24    1       1
     10  1.24029810E+03  4.00000000E+03  3.15037929E-02  1.14445820E+01  6.66140234E+04    5   25    1       1
     10  1.25000000E+03  3.99399097E+03  3.13969888E-02  1.15145054E+01  6.66778125E+04    6   25    1       1
     10  1.50000000E+03  3.93752539E+03  2.88867895E-02  5.75873852E+00  6.88360000E+04    7   25    1       1
     10  1.75000000E+03  3.96583081E+03  2.65297275E-02  6.23531723E+00  7.08608516E+04    8   25    1       1
     10  1.93361072E+03  4.00000000E+03  2.47477777E-02  5.99430609E+00  7.24497656E+04    8   24    1       1
     10  2.00000000E+03  4.01534814E+03  2.40504406E-02  5.16261959E+00  7.31308203E+04    9   24    1       1
     10  2.25000000E+03  4.05867969E+03  2.14800667E-02  7.31098080E+00  7.53285156E+04   10   24    1       1
     10  2.50000000E+03  4.09654297E+03  1.90645903E-02  5.36068773E+00  7.78550547E+04   11   24    1       1
     10  2.75000000E+03  4.14595215E+03  1.69592556E-02  1.78813934E+00  8.08322812E+04   12   24    1       1
     10  3.00000000E+03  4.18421533E+03  1.52158737E-02  1.58995962E+00  8.35197031E+04   13   24    1       1
     10  3.25000000E+03  4.19064453E+03  1.37398802E-02  1.82421684E+00  8.59007656E+04   14   24    1       1
     10  3.50000000E+03  4.17180762E+03  1.24204578E-02  1.36530781E+00  8.81634297E+04   15   24    1       1
     11  6.56250000E+02  6.78125000E+03  6.66666687E-01  2.48833733E+01  0.00000000E+00    3   13    1       1
     11  6.61358459E+02  6.75000000E+03  5.88551283E-01  2.35959492E+01  2.97159839E+03    3   14    1       1
     11  6.90751160E+02  6.50000000E+03  3.09808999E-01  1.74621849E+01  2.02419844E+04    3   15    1       1
     11  7.04517517E+02  6.25000000E+03  2.14025304E-01  1.47652769E+01  3.07234160E+04    3   16    1       1
     11  7.04679138E+02  6.00000000E+03  1.65194437E-01  1.36373520E+01  3.80454688E+04    3   17    1       1
     11  6.99793335E+02  5.75000000E+03  1.35679334E-01  1.19989843E+01  4.38694062E+04    3   18    1       1
     11  6.98991699E+02  5.50000000E+03  1.16330318E-01  9.52473450E+00  4.88620117E+04    3   19    1       1
     11  7.01904724E+02  5.25000000E+03  1.02747403E-01  8.41432571E+00  5.29724102E+04    3   20    1       1
     11  7.14710510E+02  5.00000000E+03  9.23337340E-02  6.25556660E+00  5.67587422E+04    3   21    1       1
     11  7.36655701E+02  4.75000000E+03  8.38990211E-02  9.56077003E+00  5.95378555E+04    3   22    1       1
     11  7.50000000E+02  4.66981250E+03  8.15207884E-02  6.56946230E+00  6.04764375E+04    4   22    1       1