@ [ MODPATH 5.0 (TREF=   0.000000E+00 ) ]
      1  5.31250000E+02  6.78125000E+03  1.00000005E-03  1.39131393E+01  0.00000000E+00    3   13    1       1
      1  5.41109985E+02  6.75000000E+03  8.42764799E-04  1.39104443E+01  4.24197070E+03    3   14    1       1
      1  5.94895630E+02  6.50000000E+03  3.84913408E-04  1.17063942E+01  2.60217344E+04    3   15    1       1
      1  6.26490295E+02  6.25000000E+03  2.56411789E-04  1.05781422E+01  3.78099453E+04    3   16    1       1
      1  6.45634399E+02  6.00000000E+03  1.96388253E-04  1.04128828E+01  4.54350117E+04    3   17    1       1
      1  6.49483765E+02  5.75000000E+03  1.61890959E-04  9.22741318E+00  5.11536367E+04    3   18    1       1
      1  6.42680359E+02  5.50000000E+03  1.38878910E-04  6.91870499E+00  5.61116875E+04    3   19    1       1
      1  6.46274048E+02  5.25000000E+03  1.22252241E-04  6.06597996E+00  6.03098125E+04    3   20    1       1
      1  6.59811462E+02  5.00000000E+03  1.09520246E-04  3.99695730E+00  6.41713242E+04    3   21    1       1
      1  6.85330322E+02  4.75000000E+03  9.92787536E-05  7.88035774E+00  6.69748047E+04    3   22    1       1
      1  7.34638794E+02  4.50000000E+03  9.07826252E-05  4.73230743E+00  6.98364844E+04    3   23    1       1
      1  7.50000000E+02  4.47148926E+03  8.98719736E-05  5.47434998E+00  7.01317656E+04    4   23    1       1
      1  8.99665527E+02  4.25000000E+03  8.31146972E-05  8.63680744E+00  7.20440000E+04    4   24    1       1
      1  1.00000000E+03  4.17643213E+03  8.04399606E-05  9.38643169E+00  7.27733672E+04    5   24    1       1
      1  1.25000000E+03  4.02275732E+03  7.55061119E-05  1.10129690E+01  7.39459766E+04    6   24    1       1
      1  1.34327332E+03  4.00000000E+03  7.38858434E-05  1.14108706E+01  7.43030234E+04    6   25    1       1
      1  1.50000000E+03  3.93675269E+03  6.99464072E-05  5.24283695E+00  7.57071406E+04    7   25    1       1
      1  1.75000000E+03  3.91102856E+03  6.38907295E-05  5.80013084E+00  7.78180938E+04    8   25    1       1
      1  2.00000000E+03  3.89964429E+03  5.77723076E-05  5.60428810E+00  8.00553516E+04    9   25    1       1
      1  2.25000000E+03  3.88328418E+03  5.19027271E-05  6.76748800E+00  8.21064219E+04   10   25    1       1
      1  2.50000000E+03  3.83462036E+03  4.63753131E-05  1.78210449E+00  8.49317344E+04   11   25    1       1
      1  2.75000000E+03  3.79858984E+03  4.12036388E-05  6.46243095E-01  8.79763359E+04   12   25    1       1
      1  3.00000000E+03  3.76243311E+03  3.67105567E-05  3.46958727E-01  9.08831875E+04   13   25    1       1
      1  3.07436108E+03  3.75000000E+03  3.55081575E-05  3.35161567E-01  9.16851328E+04   13   26    1       1
      1  3.25000000E+03  3.72115601E+03  3.29306749E-05  5.44707417E-01  9.34656562E+04   14   26    1       1
      1  3.50000000E+03  3.67740088E+03  2.97635233E-05  5.62368929E-01  9.57220391E+04   15   26    1       1
      2  5.31250000E+02  6.78125000E+03  3.33333343E-01  1.96090813E+01  0.00000000E+00    3   13    1       1
      2  5.41109985E+02  6.75000000E+03  2.80920208E-01  1.87107601E+01  4.24197070E+03    3   14    1       1
      2  5.94895630E+02  6.50000000E+03  1.28299892E-01  1.41635246E+01  2.60217344E+04    3   15    1       1
      2  6.26490295E+02  6.25000000E+03  8.54624510E-02  1.22869072E+01  3.78099453E+04    3   16    1       1
      2  6.45634399E+02  6.00000000E+03  6.54624104E-02  1.17031298E+01  4.54350117E+04    3   17    1       1
      2  6.49483765E+02  5.75000000E+03  5.39646335E-02  1.03284750E+01  5.11536367E+04    3   18    1       1
      2  6.42680359E+02  5.50000000E+03  4.62960079E-02  7.95072222E+00  5.61116875E+04    3   19    1       1
      2  6.46274048E+02  5.25000000E+03  4.07496691E-02  6.98982906E+00  6.03098125E+04    3   20    1       1
      2  6.59811462E+02  5.00000000E+03  3.65049094E-02  4.88005972E+00  6.41713242E+04    3   21    1       1
      2  6.85330322E+02  4.75000000E+03  3.30885984E-02  8.53094578E+00  6.69748047E+04    3   22    1       1
      2  7.34638794E+02  4.50000000E+03  3.02573759E-02  5.39938402E+00  6.98364844E+04    3   23    1       1
      2  7.50000000E+02  4.47148926E+03  2.99588684E-02  6.08924103E+00  7.01317656E+04    4   23    1       1
      2  8.99665527E+02  4.25000000E+03  2.77096853E-02  9.10468864E+00  7.20440000E+04    4   24    1       1
      2  1.00000000E+03  4.17643213E+03  2.68125311E-02  9.79590321E+00  7.27733672E+04    5   24    1       1
      2  1.25000000E+03  4.02275732E+03  2.51714028E-02  1.13350124E+01  7.39459766E+04    6   24    1       1
      2  1.34327332E+03  4.00000000E+03  2.46497095E-02  1.17004833E+01  7.43030234E+04    6   25    1       1
      2  1.50000000E+03  3.93675269E+03  2.33333018E-02  5.65422058E+00  7.57071406E+04    7   25    1       1
      2  1.75000000E+03  3.91102856E+03  2.13159509E-02  6.14304781E+00  7.78180938E+04    8   25    1       1
      2  2.00000000E+03  3.89964429E+03  1.92755051E-02  5.89963484E+00  8.00553516E+04    9   25    1       1
      2  2.25000000E+03  3.88328418E+03  1.73205826E-02  6.99641943E+00  8.21064219E+04   10   25    1       1
      2  2.50000000E+03  3.83462036E+03  1.54766077E-02  2.04979634E+00  8.49317344E+04   11   25    1       1
      2  2.75000000E+03  3.79858984E+03  1.37501219E-02  8.90146315E-01  8.79763359E+04   12   25    1       1
      2  3.00000000E+03  3.76243311E+03  1.22505166E-02  5.59465528E-01  9.08831875E+04   13   25    1       1
      2  3.07436108E+03  3.75000000E+03  1.18496353E-02  5.31988323E-01  9.16851328E+04   13   26    1       1
      2  3.25000000E+03  3.72115601E+03  1.09888595E-02  7.23497152E-01  9.34656562E+04   14   26    1       1
      2  3.50000000E+03  3.67740088E+03  9.93178599E-03  7.15058863E-01  9.57220391E+04   15   26    1       1
      3  5.31250000E+02  6.78125000E+03  6.66666687E-01  2.53221626E+01  0.00000000E+00    3   13    1       1
      3  5.41109985E+02  6.75000000E+03  5.61840415E-01  2.35255203E+01  4.24197070E+03    3   14    1       1
      3  5.94895630E+02  6.50000000E+03  2.56599724E-01  1.66280479E+01  2.60217344E+04    3   15    1       1
      3  6.26490295E+02  6.25000000E+03  1.70924857E-01  1.40008135E+01  3.78099453E+04    3   16    1       1
      3  6.45634399E+02  6.00000000E+03  1.30924776E-01  1.29972582E+01  4.54350117E+04    3   17    1       1
      3  6.49483765E+02  5.75000000E+03  1.07929215E-01  1.14328489E+01  5.11536367E+04    3   18    1       1
      3  6.42680359E+02  5.50000000E+03  9.25919712E-02  8.98584366E+00  5.61116875E+04    3   19    1       1
      3  6.46274048E+02  5.25000000E+03  8.14993158E-02  7.91645765E+00  6.03098125E+04    3   20    1       1
      3  6.59811462E+02  5.00000000E+03  7.30097741E-02  5.76581860E+00  6.41713242E+04    3   21    1       1
      3  6.85330322E+02  4.75000000E+03  6.61771446E-02  9.18349075E+00  6.69748047E+04    3   22    1       1
      3  7.34638794E+02  4.50000000E+03  6.05146848E-02  6.06846666E+00  6.98364844E+04    3   23    1       1
      3  7.50000000E+02  4.47148926E+03  5.99176921E-02  6.70598125E+00  7.01317656E+04    4   23    1       1
      3  8.99665527E+02  4.25000000E+03  5.54193147E-02  9.57397652E+00  7.20440000E+04    4   24    1       1
      3  1.00000000E+03  4.17643213E+03  5.36249988E-02  1.02066059E+01  7.27733672E+04    5   24    1       1
      3  1.25000000E+03  4.02275732E+03  5.03428057E-02  1.16580248E+01  7.39459766E+04    6   24    1       1
      3  1.34327332E+03  4.00000000E+03  4.92995009E-02  1.19909678E+01  7.43030234E+04    6   25    1       1
      3  1.50000000E+03  3.93675269E+03  4.66667637E-02  6.06684399E+00  7.57071406E+04    7   25    1       1
      3  1.75000000E+03  3.91102856E+03  4.26320508E-02  6.48699808E+00  7.78180938E+04    8   25    1       1
      3  2.00000000E+03  3.89964429E+03  3.85511033E-02  6.19587088E+00  8.00553516E+04    9   25    1       1
      3  2.25000000E+03  3.88328418E+03  3.46412398E-02  7.22603989E+00  8.21064219E+04   10   25    1       1
      3  2.50000000E+03  3.83462036E+03  3.09532639E-02  2.31829357E+00  8.49317344E+04   11   25    1       1
      3  2.75000000E+03  3.79858984E+03  2.75002811E-02  1.13478327E+00  8.79763359E+04   12   25    1       1
      3  3.00000000E+03  3.76243311E+03  2.45010648E-02  7.72611618E-01  9.08831875E+04   13   25    1       1
      3  3.07436108E+03  3.75000000E+03  2.36993022E-02  7.29407191E-01  9.16851328E+04   13   26    1       1
      3  3.25000000E+03  3.72115601E+03  2.19777469E-02  9.02824759E-01  9.34656562E+04   14   26    1       1
      3  3.50000000E+03  3.67740088E+03  1.98635943E-02  8.68208110E-01  9.57220391E+04   15   26    1       1
      4  5.31250000E+02  6.78125000E+03  9.99000013E-01  3.10181046E+01  0.00000000E+00    3   13    1       1
      4  5.41109985E+02  6.75000000E+03  8.41917872E-01  2.83258362E+01  4.24197070E+03    3   14    1       1
      4  5.94895630E+02  6.50000000E+03  3.84514689E-01  1.90851784E+01  2.60217344E+04    3   15    1       1
      4  6.26490295E+02  6.25000000E+03  2.56130934E-01  1.57095795E+01  3.78099453E+04    3   16    1       1
      4  6.45634399E+02  6.00000000E+03  1.96190804E-01  1.42875051E+01  4.54350117E+04    3   17    1       1
      4  6.49483765E+02  5.75000000E+03  1.61731958E-01  1.25339108E+01  5.11536367E+04    3   18    1       1
      4  6.42680359E+02  5.50000000E+03  1.38749078E-01  1.00178604E+01  5.61116875E+04    3   19    1       1
      4  6.46274048E+02  5.25000000E+03  1.22126758E-01  8.84030724E+00  6.03098125E+04    3   20    1       1
      4  6.59811462E+02  5.00000000E+03  1.09405227E-01  6.64892244E+00  6.41713242E+04    3   21    1       1
      4  6.85330322E+02  4.75000000E+03  9.91665125E-02  9.83407974E+00  6.69748047E+04    3   22    1       1
      4  7.34638794E+02  4.50000000E+03  9.06813443E-02  6.73554468E+00  6.98364844E+04    3   23    1       1
      4  7.50000000E+02  4.47148926E+03  8.97867605E-02  7.32087374E+00  7.01317656E+04    4   23    1       1
      4  8.99665527E+02  4.25000000E+03  8.30459446E-02  1.00418587E+01  7.20440000E+04    4   24    1       1
      4  1.00000000E+03  4.17643213E+03  8.03572163E-02  1.06160793E+01  7.27733672E+04    5   24    1       1
      4  1.25000000E+03  4.02275732E+03  7.54387751E-02  1.19800692E+01  7.39459766E+04    6   24    1       1
      4  1.34327332E+03  4.00000000E+03  7.38753229E-02  1.22805805E+01  7.43030234E+04    6   25    1       1
      4  1.50000000E+03  3.93675269E+03  6.99301213E-02  6.47822762E+00  7.57071406E+04    7   25    1       1
      4  1.75000000E+03  3.91102856E+03  6.38840795E-02  6.82991457E+00  7.78180938E+04    8   25    1       1
      4  2.00000000E+03  3.89964429E+03  5.77688329E-02  6.49121761E+00  8.00553516E+04    9   25    1       1
      4  2.25000000E+03  3.88328418E+03  5.19099198E-02  7.45497131E+00  8.21064219E+04   10   25    1       1
      4  2.50000000E+03  3.83462036E+03  4.63834964E-02  2.58598542E+00  8.49317344E+04   11   25    1       1
      4  2.75000000E+03  3.79858984E+03  4.12091911E-02  1.37868631E+00  8.79763359E+04   12   25    1       1
      4  3.00000000E+03  3.76243311E+03  3.67148630E-02  9.85118270E-01  9.08831875E+04   13   25    1       1
      4  3.07436108E+03  3.75000000E+03  3.55134234E-02  9.26233828E-01  9.16851328E+04   13   26    1       1
      4  3.25000000E+03  3.72115601E+03  3.29336822E-02  1.08161461E+00  9.34656562E+04   14   26    1       1
      4  3.50000000E+03  3.67740088E+03  2.97656208E-02  1.02089810E+00  9.57220391E+04   15   26    1       1
      5  5.93750000E+02  6.78125000E+03  1.00000005E-03  1.39131393E+01  0.00000000E+00    3   13    1       1
      5  6.02847351E+02  6.75000000E+03  8.42764799E-04  1.39104443E+01  4.24197070E+03    3   14    1       1
      5  6.51496765E+02  6.50000000E+03  3.84913408E-04  1.17063942E+01  2.60217344E+04    3   15    1       1
      5  6.78783020E+02  6.25000000E+03  2.56411789E-04  1.05781422E+01  3.78099453E+04    3   16    1       1
      5  6.93010437E+02  6.00000000E+03  1.96388253E-04  1.04128828E+01  4.54350117E+04    3   17    1       1
      5  6.92768921E+02  5.75000000E+03  1.61890959E-04  9.22741318E+00  5.11536367E+04    3   18    1       1
      5  6.84706665E+02  5.50000000E+03  1.38878910E-04  6.91870499E+00  5.61116875E+04    3   19    1       1
      5  6.86002197E+02  5.25000000E+03  1.22252241E-04  6.06597996E+00  6.03098125E+04    3   20    1       1
      5  6.99341064E+02  5.00000000E+03  1.09520246E-04  3.99695730E+00  6.41713242E+04    3   21    1       1
      5  7.24358704E+02  4.75000000E+03  9.92787536E-05  7.88035774E+00  6.69748047E+04    3   22    1       1
      5  7.50000000E+02  4.62326660E+03  9.47934532E-05  4.73239613E+00  6.84531719E+04    4   22    1       1
      5  7.70524048E+02  4.50000000E+03  9.12056785E-05  8.28237820E+00  6.94775938E+04    4   23    1       1
      5  9.51175598E+02  4.25000000E+03  8.36778054E-05  8.63681698E+00  7.15983281E+04    4   24    1       1
      5  1.00000000E+03  4.21450244E+03  8.23700175E-05  9.38646126E+00  7.19352188E+04    5   24    1       1
      5  1.25000000E+03  4.05224927E+03  7.72897183E-05  1.10129919E+01  7.31078281E+04    6   24    1       1
      5  1.46727661E+03  4.00000000E+03  7.34002897E-05  1.14108648E+01  7.39849062E+04    6   25    1       1
      5  1.50000000E+03  3.98707910E+03  7.25619830E-05  5.24288321E+00  7.42743672E+04    7   25    1       1
      5  1.75000000E+03  3.97177124E+03  6.63139726E-05  5.80016994E+00  7.63853203E+04    8   25    1       1
      5  2.00000000E+03  3.97510400E+03  5.99441992E-05  5.60432148E+00  7.86225781E+04    9   25    1       1
      5  2.25000000E+03  3.96762793E+03  5.38450331E-05  6.76751375E+00  8.06736562E+04   10   25    1       1
      5  2.50000000E+03  3.93883716E+03  4.81206589E-05  1.78213477E+00  8.34989688E+04   11   25    1       1
      5  2.75000000E+03  3.91586987E+03  4.27547639E-05  6.46270692E-01  8.65435703E+04   12   25    1       1
      5  3.00000000E+03  3.88788037E+03  3.80928577E-05  3.46982777E-01  8.94504219E+04   13   25    1       1
      5  3.25000000E+03  3.85345312E+03  3.41307605E-05  3.35138619E-01  9.20977734E+04   14   25    1       1
      5  3.50000000E+03  3.81304443E+03  3.07796763E-05  6.10848069E-01  9.44198906E+04   15   25    1       1
      6  5.93750000E+02  6.78125000E+03  3.33333343E-01  1.96090813E+01  0.00000000E+00    3   13    1       1
      6  6.02847351E+02  6.75000000E+03  2.80920208E-01  1.87107601E+01  4.24197070E+03    3   14    1       1
      6  6.51496765E+02  6.50000000E+03  1.28299892E-01  1.41635246E+01  2.60217344E+04    3   15    1       1
      6  6.78783020E+02  6.25000000E+03  8.54624510E-02  1.22869072E+01  3.78099453E+04    3   16    1       1
      6  6.93010437E+02  6.00000000E+03  6.54624104E-02  1.17031298E+01  4.54350117E+04    3   17    1       1
      6  6.92768921E+02  5.75000000E+03  5.39646335E-02  1.03284750E+01  5.11536367E+04    3   18    1       1
      6  6.84706665E+02  5.50000000E+03  4.62960079E-02  7.95072222E+00  5.61116875E+04    3   19    1       1
      6  6.86002197E+02  5.25000000E+03  4.07496691E-02  6.98982906E+00  6.03098125E+04    3   20    1       1
      6  6.99341064E+02  5.00000000E+03  3.65049094E-02  4.88005972E+00  6.41713242E+04    3   21    1       1
      6  7.24358704E+02  4.75000000E+03  3.30885984E-02  8.53094578E+00  6.69748047E+04    3   22    1       1
      6  7.50000000E+02  4.62326660E+03  3.15943807E-02  5.42894936E+00  6.84531719E+04    4   22    1       1
      6  7.70524048E+02  4.50000000E+03  3.04018576E-02  8.84018803E+00  6.94775938E+04    4   23    1       1
      6  9.51175598E+02  4.25000000E+03  2.78811511E-02  9.10759258E+00  7.15983281E+04    4   24    1       1
      6  1.00000000E+03  4.21450244E+03  2.74605341E-02  9.80582905E+00  7.19352188E+04    5   24    1       1
      6  1.25000000E+03  4.05224927E+03  2.57798359E-02  1.13428202E+01  7.31078281E+04    6   24    1       1
      6  1.46727661E+03  4.00000000E+03  2.44871285E-02  1.16985674E+01  7.39849062E+04    6   25    1       1
      6  1.50000000E+03  3.98707910E+03  2.42116228E-02  5.66975260E+00  7.42743672E+04    7   25    1       1
      6  1.75000000E+03  3.97177124E+03  2.21183393E-02  6.15599489E+00  7.63853203E+04    8   25    1       1
      6  2.00000000E+03  3.97510400E+03  2.00010408E-02  5.91078520E+00  7.86225781E+04    9   25    1       1
      6  2.25000000E+03  3.96762793E+03  1.79725140E-02  7.00506210E+00  8.06736562E+04   10   25    1       1
      6  2.50000000E+03  3.93883716E+03  1.60591267E-02  2.05990219E+00  8.34989688E+04   11   25    1       1
      6  2.75000000E+03  3.91586987E+03  1.42676551E-02  8.99354041E-01  8.65435703E+04   12   25    1       1
      6  3.00000000E+03  3.88788037E+03  1.27116051E-02  5.67487955E-01  8.94504219E+04   13   25    1       1
      6  3.25000000E+03  3.85345312E+03  1.13893924E-02  5.24320543E-01  9.20977734E+04   14   25    1       1
      6  3.50000000E+03  3.81304443E+03  1.02712447E-02  7.69909263E-01  9.44198906E+04   15   25    1       1
      7  5.93750000E+02  6.78125000E+03  6.66666687E-01  2.53221626E+01  0.00000000E+00    3   13    1       1
      7  6.02847351E+02  6.75000000E+03  5.61840415E-01  2.35255203E+01  4.24197070E+03    3   14    1       1
      7  6.51496765E+02  6.50000000E+03  2.56599724E-01  1.66280479E+01  2.60217344E+04    3   15    1       1
      7  6.78783020E+02  6.25000000E+03  1.70924857E-01  1.40008135E+01  3.78099453E+04    3   16    1       1
      7  6.93010437E+02  6.00000000E+03  1.30924776E-01  1.29972582E+01  4.54350117E+04    3   17    1       1
      7  6.92768921E+02  5.75000000E+03  1.07929215E-01  1.14328489E+01  5.11536367E+04    3   18    1       1
      7  6.84706665E+02  5.50000000E+03  9.25919712E-02  8.98584366E+00  5.61116875E+04    3   19    1       1
      7  6.86002197E+02  5.25000000E+03  8.14993158E-02  7.91645765E+00  6.03098125E+04    3   20    1       1
      7  6.99341064E+02  5.00000000E+03  7.30097741E-02  5.76581860E+00  6.41713242E+04    3   21    1       1
      7  7.24358704E+02  4.75000000E+03  6.61771446E-02  9.18349075E+00  6.69748047E+04    3   22    1       1
      7  7.50000000E+02  4.62326660E+03  6.31886721E-02  6.12759686E+00  6.84531719E+04    4   22    1       1
      7  7.70524048E+02  4.50000000E+03  6.08036146E-02  9.39967442E+00  6.94775938E+04    4   23    1       1
      7  9.51175598E+02  4.25000000E+03  5.57622463E-02  9.57978439E+00  7.15983281E+04    4   24    1       1
      7  1.00000000E+03  4.21450244E+03  5.49209416E-02  1.02264566E+01  7.19352188E+04    5   24    1       1
      7  1.25000000E+03  4.05224927E+03  5.15593775E-02  1.16736364E+01  7.31078281E+04    6   24    1       1
      7  1.46727661E+03  4.00000000E+03  4.89740148E-02  1.19871321E+01  7.39849062E+04    6   25    1       1
      7  1.50000000E+03  3.98707910E+03  4.84230295E-02  6.09790134E+00  7.42743672E+04    7   25    1       1
      7  1.75000000E+03  3.97177124E+03  4.42364402E-02  6.51288605E+00  7.63853203E+04    8   25    1       1
      7  2.00000000E+03  3.97510400E+03  4.00019549E-02  6.21816826E+00  7.86225781E+04    9   25    1       1
      7  2.25000000E+03  3.96762793E+03  3.59449573E-02  7.24332333E+00  8.06736562E+04   10   25    1       1
      7  2.50000000E+03  3.93883716E+03  3.21181938E-02  2.33850336E+00  8.34989688E+04   11   25    1       1
      7  2.75000000E+03  3.91586987E+03  2.85352543E-02  1.15319705E+00  8.65435703E+04   12   25    1       1
      7  3.00000000E+03  3.88788037E+03  2.54231635E-02  7.88655102E-01  8.94504219E+04   13   25    1       1
      7  3.25000000E+03  3.85345312E+03  2.27787457E-02  7.14070439E-01  9.20977734E+04   14   25    1       1
      7  3.50000000E+03  3.81304443E+03  2.05424614E-02  9.29448128E-01  9.44198906E+04   15   25    1       1
      8  5.93750000E+02  6.78125000E+03  9.99000013E-01  3.10181046E+01  0.00000000E+00    3   13    1       1
      8  6.02847351E+02  6.75000000E+03  8.41917872E-01  2.83258362E+01  4.24197070E+03    3   14    1       1
      8  6.51496765E+02  6.50000000E+03  3.84514689E-01  1.90851784E+01  2.60217344E+04    3   15    1       1
      8  6.78783020E+02  6.25000000E+03  2.56130934E-01  1.57095795E+01  3.78099453E+04    3   16    1       1
      8  6.93010437E+02  6.00000000E+03  1.96190804E-01  1.42875051E+01  4.54350117E+04    3   17    1       1
      8  6.92768921E+02  5.75000000E+03  1.61731958E-01  1.25339108E+01  5.11536367E+04    3   18    1       1
      8  6.84706665E+02  5.50000000E+03  1.38749078E-01  1.00178604E+01  5.61116875E+04    3   19    1       1
      8  6.86002197E+02  5.25000000E+03  1.22126758E-01  8.84030724E+00  6.03098125E+04    3   20    1       1
      8  6.99341064E+02  5.00000000E+03  1.09405227E-01  6.64892244E+00  6.41713242E+04    3   21    1       1
      8  7.24358704E+02  4.75000000E+03  9.91665125E-02  9.83407974E+00  6.69748047E+04    3   22    1       1
      8  7.50000000E+02  4.62326660E+03  9.46883261E-02  6.82415152E+00  6.84531719E+04    4   22    1       1
      8  7.70524048E+02  4.50000000E+03  9.11143199E-02  9.95748520E+00  6.94775938E+04    4   23    1       1
      8  9.51175598E+02  4.25000000E+03  8.35597813E-02  1.00505610E+01  7.15983281E+04    4   24    1       1
      8  1.00000000E+03  4.21450244E+03  8.22991058E-02  1.06458244E+01  7.19352188E+04    5   24    1       1
      8  1.25000000E+03  4.05224927E+03  7.72618502E-02  1.20034637E+01  7.31078281E+04    6   24    1       1
      8  1.46727661E+03  4.00000000E+03  7.33877420E-02  1.22748346E+01  7.39849062E+04    6   25    1       1
      8  1.50000000E+03  3.98707910E+03  7.25621134E-02  6.52477121E+00  7.42743672E+04    7   25    1       1
      8  1.75000000E+03  3.97177124E+03  6.62884936E-02  6.86871147E+00  7.63853203E+04    8   25    1       1
      8  2.00000000E+03  3.97510400E+03  5.99430501E-02  6.52463198E+00  7.86225781E+04    9   25    1       1
      8  2.25000000E+03  3.96762793E+03  5.38635924E-02  7.48087120E+00  8.06736562E+04   10   25    1       1
      8  2.50000000E+03  3.93883716E+03  4.81291711E-02  2.61627030E+00  8.34989688E+04   11   25    1       1
      8  2.75000000E+03  3.91586987E+03  4.27601263E-02  1.40627992E+00  8.65435703E+04   12   25    1       1
      8  3.00000000E+03  3.88788037E+03  3.80966477E-02  1.00915980E+00  8.94504219E+04   13   25    1       1
      8  3.25000000E+03  3.85345312E+03  3.41339782E-02  9.03251886E-01  9.20977734E+04   14   25    1       1
      8  3.50000000E+03  3.81304443E+03  3.07829045E-02  1.08850896E+00  9.44198906E+04   15   25    1       1
      9  6.56250000E+02  6.78125000E+03  1.00000005E-03  1.39131393E+01  0.00000000E+00    3   13    1       1
      9  6.64584717E+02  6.75000000E+03  8.42764799E-04  1.39104443E+01  4.24197070E+03    3   14    1       1
      9  7.08097900E+02  6.50000000E+03  3.84913408E-04  1.17063942E+01  2.60217344E+04    3   15    1       1
      9  7.31075684E+02  6.25000000E+03  2.56411789E-04  1.05781422E+01  3.78099453E+04    3   16    1       1
      9  7.40386475E+02  6.00000000E+03  1.96388253E-04  1.04128828E+01  4.54350117E+04    3   17    1       1
      9  7.36054016E+02  5.75000000E+03  1.61890959E-04  9.22741318E+00  5.11536367E+04    3   18    1       1
      9  7.26732910E+02  5.50000000E+03  1.38878910E-04  6.91870499E+00  5.61116875E+04    3   19    1       1
      9  7.25730286E+02  5.25000000E+03  1.22252241E-04  6.06597996E+00  6.03098125E+04    3   20    1       1
      9  7.38870605E+02  5.00000000E+03  1.09520246E-04  3.99695730E+00  6.41713242E+04    3   21    1       1
      9  7.50000000E+02  4.89033545E+03  1.04767372E-04  7.88046598E+00  6.54395391E+04    4   21    1       1
      9  7.63861145E+02  4.75000000E+03  9.89254986E-05  9.50458241E+00  6.69284688E+04    4   22    1       1
      9  8.04029114E+02  4.50000000E+03  9.09983937E-05  8.28237438E+00  6.91582266E+04    4   23    1       1
      9  1.00000000E+03  4.25215674E+03  8.35088722E-05  8.63681412E+00  7.12572109E+04    5   23    1       1
      9  1.00198083E+03  4.25000000E+03  8.34635648E-05  8.43924809E+00  7.12737891E+04    5   24    1       1
      9  1.25000000E+03  4.08114209E+03  7.84044751E-05  1.10130062E+01  7.24354766E+04    6   24    1       1
      9  1.50000000E+03  4.02795996E+03  7.38049202E-05  1.14108696E+01  7.34597422E+04    7   24    1       1
      9  1.75000000E+03  4.03261182E+03  6.80241501E-05  1.04517851E+01  7.48281016E+04    8   24    1       1
      9  2.00000000E+03  4.05027539E+03  6.11516298E-05  4.76748896E+00  7.73171094E+04    9   24    1       1
      9  2.25000000E+03  4.05832788E+03  5.43161186E-05  7.02300692E+00  7.95389141E+04   10   24    1       1
      9  2.50000000E+03  4.04562891E+03  4.77826943E-05  5.08227444E+00  8.21501016E+04   11   24    1       1
      9  2.75000000E+03  4.03439697E+03  4.19713178E-05  1.49061298E+00  8.53363047E+04   12   24    1       1
      9  3.00000000E+03  4.01319019E+03  3.69878071E-05  1.33000946E+00  8.83515547E+04   13   24    1       1
      9  3.11096191E+03  4.00000000E+03  3.50149239E-05  1.60314202E+00  8.95743984E+04   13   25    1       1
      9  3.25000000E+03  3.98493652E+03  3.29626600E-05  3.35119158E-01  9.10296797E+04   14   25    1       1
      9  3.50000000E+03  3.94902100E+03  2.97243951E-05  6.10831678E-01  9.33517969E+04   15   25    1       1
     10  6.56250000E+02  6.78125000E+03  3.33333343E-01  1.96090813E+01  0.00000000E+00    3   13    1       1
     10  6.64584717E+02  6.75000000E+03  2.80920208E-01  1.87107601E+01  4.24197070E+03    3   14    1       1
     10  7.08097900E+02  6.50000000E+03  1.28299892E-01  1.41635246E+01  2.60217344E+04    3   15    1       1
     10  7.31075684E+02  6.25000000E+03  8.54624510E-02  1.22869072E+01  3.78099453E+04    3   16    1       1
     10  7.40386475E+02  6.00000000E+03  6.54624104E-02  1.17031298E+01  4.54350117E+04    3   17    1       1
     10  7.36054016E+02  5.75000000E+03  5.39646335E-02  1.03284750E+01  5.11536367E+04    3   18    1       1
     10  7.26732910E+02  5.50000000E+03  4.62960079E-02  7.95072222E+00  5.61116875E+04    3   19    1       1
     10  7.25730286E+02  5.25000000E+03  4.07496691E-02  6.98982906E+00  6.03098125E+04    3   20    1       1
     10  7.38870605E+02  5.00000000E+03  3.65049094E-02  4.88005972E+00  6.41713242E+04    3   21    1       1
     10  7.50000000E+02  4.89033545E+03  3.49178314E-02  8.56702042E+00  6.54395391E+04    4   21    1       1
     10  7.63861145E+02  4.75000000E+03  3.29792425E-02  1.00970125E+01  6.69284688E+04    4   22    1       1
     10  8.04029114E+02  4.50000000E+03  3.03298272E-02  8.83886242E+00  6.91582266E+04    4   23    1       1
     10  1.00000000E+03  4.25215674E+03  2.78398190E-02  9.10689259E+00  7.12572109E+04    5   23    1       1
     10  1.00198083E+03  4.25000000E+03  2.78201066E-02  8.88738060E+00  7.12737891E+04    5   24    1       1
     10  1.25000000E+03  4.08114209E+03  2.61326190E-02  1.13473473E+01  7.24354766E+04    6   24    1       1
     10  1.50000000E+03  4.02795996E+03  2.46087611E-02  1.17000008E+01  7.34597422E+04    7   24    1       1
     10  1.75000000E+03  4.03261182E+03  2.26720441E-02  1.07125940E+01  7.48281016E+04    8   24    1       1
     10  2.00000000E+03  4.05027539E+03  2.03840435E-02  5.09615612E+00  7.73171094E+04    9   24    1       1
     10  2.25000000E+03  4.05832788E+03  1.81159824E-02  7.25815439E+00  7.95389141E+04   10   24    1       1
     10  2.50000000E+03  4.04562891E+03  1.59409009E-02  5.30653763E+00  8.21501016E+04   11   24    1       1
     10  2.75000000E+03  4.03439697E+03  1.40026445E-02  1.72777092E+00  8.53363047E+04   12   24    1       1
     10  3.00000000E+03  4.01319019E+03  1.23390984E-02  1.53273427E+00  8.83515547E+04   13   24    1       1
     10  3.11096191E+03  4.00000000E+03  1.16834491E-02  1.78346431E+00  8.95743984E+04   13   25    1       1
     10  3.25000000E+03  3.98493652E+03  1.09989168E-02  5.17815113E-01  9.10296797E+04   14   25    1       1
     10  3.50000000E+03  3.94902100E+03  9.91910696E-03  7.64439642E-01  9.33517969E+04   15   25    1       1
     11  6.56250000E+02  6.78125000E+03  6.66666687E-01  2.53221626E+01  0.00000000E+00    3   13    1       1
     11  6.64584717E+02  6.75000000E+03  5.61840415E-01  2.35255203E+01  4.24197070E+03    3   14    1       1
     11  7.08097900E+02  6.50000000E+03  2.56599724E-01  1.66280479E+01  2.60217344E+04    3   15    1       1
     11  7.31075684E+02  6.25000000E+03  1.70924857E-01  1.40008135E+01  3.78099453E+04    3   16    1       1
     11  7.40386475E+02  6.00000000E+03  1.30924776E-01  1.29972582E+01  4.54350117E+04    3   17    1       1
     11  7.36054016E+02  5.75000000E+03  1.07929215E-01  1.14328489E+01  5.11536367E+04    3   18    1       1
     11  7.26732910E+02  5.50000000E+03  9.25919712E-02  8.98584366E+00  5.61116875E+04    3   19    1       1
     11  7.25730286E+02  5.25000000E+03  8.14993158E-02  7.91645765E+00  6.03098125E+04    3   20    1       1
     11  7.38870605E+02  5.00000000E+03  7.30097741E-02  5.76581860E+00  6.41713242E+04    3   21    1       1
     11  7.50000000E+02  4.89033545E+03  6.98356107E-02  9.25564003E+00  6.54395391E+04    4   21    1       1
     11  7.63861145E+02  4.75000000E+03  6.59585372E-02  1.06912260E+01  6.69284688E+04    4   22    1       1
     11  8.04029114E+02  4.50000000E+03  6.06597066E-02  9.39702606E+00  6.91582266E+04    4   23    1       1
     11  1.00000000E+03  4.25215674E+03  5.56796379E-02  9.57838535E+00  7.12572109E+04    5   23    1       1