@ [ MODPATH 5.0 (TREF=   0.000000E+00 ) ]
      1  5.31250000E+02  6.78125000E+03  1.00000005E-03  1.39109554E+01  0.00000000E+00    3   13    1       1
      1  5.40400391E+02  6.75000000E+03  8.72211414E-04  1.39090443E+01  2.95782275E+03    3   14    1       1
      1  5.89854858E+02  6.50000000E+03  4.39366733E-04  1.17065220E+01  1.99431152E+04    3   15    1       1
      1  6.14176270E+02  6.25000000E+03  2.98438856E-04  1.05784254E+01  3.01193828E+04    3   16    1       1
      1  6.18906189E+02  6.00000000E+03  2.27923767E-04  1.04131575E+01  3.72331484E+04    3   17    1       1
      1  6.17114014E+02  5.75000000E+03  1.85700279E-04  9.22767925E+00  4.29446719E+04    3   18    1       1
      1  6.19001343E+02  5.50000000E+03  1.58208204E-04  6.91898346E+00  4.79004102E+04    3   19    1       1
      1  6.20975464E+02  5.25000000E+03  1.38990188E-04  6.06625557E+00  5.20257109E+04    3   20    1       1
      1  6.25798523E+02  5.00000000E+03  1.24211831E-04  3.99724770E+00  5.58841211E+04    3   21    1       1
      1  6.36334473E+02  4.75000000E+03  1.12340647E-04  7.88058281E+00  5.87091172E+04    3   22    1       1
      1  6.55961304E+02  4.50000000E+03  1.02761733E-04  4.73256969E+00  6.15514141E+04    3   23    1       1
      1  7.14946533E+02  4.25000000E+03  9.44280109E-05  5.47446775E+00  6.41060742E+04    3   24    1       1
      1  7.50000000E+02  4.14468262E+03  9.10368472E-05  7.10170555E+00  6.50975352E+04    4   24    1       1
      1  8.35816101E+02  4.00000000E+03  8.42311929E-05  9.38656807E+00  6.69265625E+04    4   25    1       1
      1  1.00000000E+03  3.78556665E+03  7.42087796E-05  1.28139124E+01  6.91807812E+04    5   25    1       1
      1  1.05551379E+03  3.75000000E+03  7.14541238E-05  1.11079607E+01  6.99115547E+04    5   26    1       1
      1  1.25000000E+03  3.62849707E+03  6.28595881E-05  6.54360819E+00  7.31732578E+04    6   26    1       1
      1  1.50000000E+03  3.55558008E+03  5.36787993E-05  4.17133951E+00  7.75979375E+04    7   26    1       1
      1  1.75000000E+03  3.52744336E+03  4.56120470E-05  6.16255713E+00  8.14991250E+04    8   26    1       1
      1  2.00000000E+03  3.53549878E+03  3.82772560E-05  4.03678942E+00  8.60610859E+04    9   26    1       1
      1  2.25000000E+03  3.56830225E+03  3.22547858E-05  3.46037316E+00  9.04663672E+04   10   26    1       1
      1  2.50000000E+03  3.65419678E+03  2.45645570E-05  2.70552373E+00  9.72536562E+04   11   26    1       1
      1  2.75000000E+03  3.73975854E+03  1.67686449E-05  4.49669451E-01  1.07778391E+05   12   26    1       1
      1  2.80845752E+03  3.75000000E+03  1.56987662E-05  6.37531996E-01  1.09495445E+05   12   25    1       1
      1  3.00000000E+03  3.77742920E+03  1.31437828E-05  3.46557736E-01  1.14143125E+05   13   25    1       1
      1  3.25000000E+03  3.78352881E+03  1.09079965E-05  3.34755450E-01  1.18728914E+05   14   25    1       1
      1  3.50000000E+03  3.76507153E+03  9.41638336E-06  6.10515594E-01  1.22022328E+05   15   25    1       1
      1  3.56824121E+03  3.75000000E+03  8.96280289E-06  2.98788905E-01  1.23047836E+05   15   26    1       1
      1  3.63597388E+03  3.50000000E+03  3.60779563E-06  4.72650468E-01  1.41462969E+05   15   27    1       1
      1  3.63358521E+03  3.25000000E+03  1.22306926E-06  3.84776920E-01  1.63111047E+05   15   28    1       1
      1  3.63230054E+03  3.00000000E+03  3.48038526E-07  2.10294798E-01  1.88147531E+05   15   29    1       1
      1  3.63463281E+03  2.75000000E+03  7.28831111E-08  6.89560950E-01  2.17538641E+05   15   30    1       1
      1  3.63767871E+03  2.50000000E+03  1.20494210E-08  1.39451632E-02  2.52726875E+05   15   31    1       1
      1  3.63193677E+03  2.25000000E+03  2.30983899E-09  4.12460029E-01  2.80781938E+05   15   32    1       1
      1  3.63225391E+03  2.00000000E+03  9.99998767E-04  5.82017779E-01  3.03600469E+05   15   33    1       1
      1  3.63533887E+03  1.75000000E+03  2.62130605E-04  7.14094400E-01  3.27132062E+05   15   34    1       1
      1  3.61868799E+03  1.50000000E+03  6.98137083E-05  6.93153203E-01  3.49975594E+05   15   35    1       1
      1  3.61768018E+03  1.25000000E+03  2.19545600E-05  5.88139296E-01  3.69741469E+05   15   36    1       1
      1  3.61807153E+03  1.00000000E+03  8.57236228E-06  2.50372261E-01  3.85970844E+05   15   37    1       1
      1  3.61893311E+03  7.50000000E+02  4.36383289E-06  6.49958700E-02  3.97580656E+05   15   38    1       1
      1  3.62332593E+03  5.00000000E+02  2.69802717E-06  3.71540636E-01  4.05483875E+05   15   39    1       1
      1  3.62336133E+03  2.50000000E+02  1.61623313E-06  6.74937546E-01  4.13527969E+05   15   40    1       1
      2  5.31250000E+02  6.78125000E+03  3.33333343E-01  1.88811646E+01  0.00000000E+00    3   13    1       1
      2  5.40400391E+02  6.75000000E+03  2.90743291E-01  1.82442112E+01  2.95782275E+03    3   14    1       1
      2  5.89854858E+02  6.50000000E+03  1.46444932E-01  1.42060280E+01  1.99431152E+04    3   15    1       1
      2  6.14176270E+02  6.25000000E+03  9.94582996E-02  1.23810968E+01  3.01193828E+04    3   16    1       1
      2  6.18906189E+02  6.00000000E+03  7.59554505E-02  1.17943401E+01  3.72331484E+04    3   17    1       1
      2  6.17114014E+02  5.75000000E+03  6.18875250E-02  1.04169044E+01  4.29446719E+04    3   18    1       1
      2  6.19001343E+02  5.50000000E+03  5.27285933E-02  8.04331875E+00  4.79004102E+04    3   19    1       1
      2  6.20975464E+02  5.25000000E+03  4.63144928E-02  7.08138180E+00  5.20257109E+04    3   20    1       1
      2  6.25798523E+02  5.00000000E+03  4.13916148E-02  4.97660971E+00  5.58841211E+04    3   21    1       1
      2  6.36334473E+02  4.75000000E+03  3.74344178E-02  8.60581112E+00  5.87091172E+04    3   22    1       1
      2  6.55961304E+02  4.50000000E+03  3.42485420E-02  5.48676300E+00  6.15514141E+04    3   23    1       1
      2  7.14946533E+02  4.25000000E+03  3.14662196E-02  6.12826490E+00  6.41060742E+04    3   24    1       1
      2  7.50000000E+02  4.14468262E+03  3.03360876E-02  7.66837025E+00  6.50975352E+04    4   24    1       1
      2  8.35816101E+02  4.00000000E+03  2.80650705E-02  9.84117889E+00  6.69265625E+04    4   25    1       1
      2  1.00000000E+03  3.78556665E+03  2.47254819E-02  1.31170893E+01  6.91807812E+04    5   25    1       1
      2  1.05551379E+03  3.75000000E+03  2.38134526E-02  1.14270554E+01  6.99115547E+04    5   26    1       1
      2  1.25000000E+03  3.62849707E+03  2.09548008E-02  6.91191816E+00  7.31732578E+04    6   26    1       1
      2  1.50000000E+03  3.55558008E+03  1.78935323E-02  4.51681328E+00  7.75979375E+04    7   26    1       1
      2  1.75000000E+03  3.52744336E+03  1.52108707E-02  6.41431952E+00  8.14991250E+04    8   26    1       1
      2  2.00000000E+03  3.53549878E+03  1.27682434E-02  4.26610041E+00  8.60610859E+04    9   26    1       1
      2  2.25000000E+03  3.56830225E+03  1.07575208E-02  3.65095806E+00  9.04663672E+04   10   26    1       1
      2  2.50000000E+03  3.65419678E+03  8.19560420E-03  2.84645128E+00  9.72536562E+04   11   26    1       1
      2  2.75000000E+03  3.73975854E+03  5.59422281E-03  5.55922747E-01  1.07778391E+05   12   26    1       1
      2  2.80845752E+03  3.75000000E+03  5.23654930E-03  7.31311679E-01  1.09495445E+05   12   25    1       1
      2  3.00000000E+03  3.77742920E+03  4.38439334E-03  4.25621033E-01  1.14143125E+05   13   25    1       1
      2  3.25000000E+03  3.78352881E+03  3.63868382E-03  3.96435589E-01  1.18728914E+05   14   25    1       1
      2  3.50000000E+03  3.76507153E+03  3.14060482E-03  6.58936024E-01  1.22022328E+05   15   25    1       1
      2  3.56824121E+03  3.75000000E+03  2.98956013E-03  3.41653198E-01  1.23047836E+05   15   26    1       1
      2  3.63597388E+03  3.50000000E+03  1.20319030E-03  4.89426732E-01  1.41462969E+05   15   27    1       1
      2  3.63358521E+03  3.25000000E+03  4.08139080E-04  3.90408784E-01  1.63111047E+05   15   28    1       1
      2  3.63230054E+03  3.00000000E+03  1.16322684E-04  2.11893663E-01  1.88147531E+05   15   29    1       1
      2  3.63463281E+03  2.75000000E+03  2.46253803E-05  6.89882219E-01  2.17538641E+05   15   30    1       1
      2  3.63767871E+03  2.50000000E+03  4.07800599E-06  1.40001597E-02  2.52726875E+05   15   31    1       1
      2  3.63193677E+03  2.25000000E+03  9.07766776E-07  4.12471712E-01  2.80781938E+05   15   32    1       1
      2  3.63225391E+03  2.00000000E+03  2.56921084E-07  5.69493234E-01  3.03600469E+05   15   33    1       1
      2  3.63533887E+03  1.75000000E+03  6.86912145E-08  7.10910857E-01  3.27132062E+05   15   34    1       1
      2  3.61868799E+03  1.50000000E+03  1.99767385E-08  6.92320228E-01  3.49975594E+05   15   35    1       1
      2  3.61768018E+03  1.25000000E+03  5.04702546E-09  5.87880075E-01  3.69741469E+05   15   36    1       1
      2  3.61807153E+03  1.00000000E+03  2.49850252E-09  2.50270039E-01  3.85970844E+05   15   37    1       1
      2  3.61893311E+03  7.50000000E+02  1.25361477E-09  6.49440140E-02  3.97580656E+05   15   38    1       1
      2  3.62332593E+03  5.00000000E+02  9.99999698E-04  3.82865250E-01  4.05483875E+05   15   39    1       1
      2  3.62336133E+03  2.50000000E+02  5.98814397E-04  6.81412578E-01  4.13527969E+05   15   40    1       1
      3  5.31250000E+02  6.78125000E+03  6.66666687E-01  2.38663330E+01  0.00000000E+00    3   13    1       1
      3  5.40400391E+02  6.75000000E+03  5.81486702E-01  2.25924244E+01  2.95782275E+03    3   14    1       1
      3  5.89854858E+02  6.50000000E+03  2.92889923E-01  1.67130566E+01  1.99431152E+04    3   15    1       1
      3  6.14176270E+02  6.25000000E+03  1.98916540E-01  1.41891928E+01  3.01193828E+04    3   16    1       1
      3  6.18906189E+02  6.00000000E+03  1.51910901E-01  1.31796799E+01  3.72331484E+04    3   17    1       1
      3  6.17114014E+02  5.75000000E+03  1.23775050E-01  1.16097088E+01  4.29446719E+04    3   18    1       1
      3  6.19001343E+02  5.50000000E+03  1.05457142E-01  9.17103672E+00  4.79004102E+04    3   19    1       1
      3  6.20975464E+02  5.25000000E+03  9.26289409E-02  8.09956264E+00  5.20257109E+04    3   20    1       1
      3  6.25798523E+02  5.00000000E+03  8.27832073E-02  5.95891905E+00  5.58841211E+04    3   21    1       1
      3  6.36334473E+02  4.75000000E+03  7.48687834E-02  9.33322144E+00  5.87091172E+04    3   22    1       1
      3  6.55961304E+02  4.50000000E+03  6.84970617E-02  6.24322557E+00  6.15514141E+04    3   23    1       1
      3  7.14946533E+02  4.25000000E+03  6.29324168E-02  6.78402948E+00  6.41060742E+04    3   24    1       1
      3  7.50000000E+02  4.14468262E+03  6.06721491E-02  8.23674011E+00  6.50975352E+04    4   24    1       1
      3  8.35816101E+02  4.00000000E+03  5.61301410E-02  1.02971582E+01  6.69265625E+04    4   25    1       1
      3  1.00000000E+03  3.78556665E+03  4.94509637E-02  1.34211788E+01  6.91807812E+04    5   25    1       1
      3  1.05551379E+03  3.75000000E+03  4.76269051E-02  1.17471104E+01  6.99115547E+04    5   26    1       1
      3  1.25000000E+03  3.62849707E+03  4.19095755E-02  7.28133583E+00  7.31732578E+04    6   26    1       1
      3  1.50000000E+03  3.55558008E+03  3.57870162E-02  4.86332560E+00  7.75979375E+04    7   26    1       1
      3  1.75000000E+03  3.52744336E+03  3.04217413E-02  6.66683912E+00  8.14991250E+04    8   26    1       1
      3  2.00000000E+03  3.53549878E+03  2.55365409E-02  4.49610186E+00  8.60610859E+04    9   26    1       1
      3  2.25000000E+03  3.56830225E+03  2.15151086E-02  3.84211731E+00  9.04663672E+04   10   26    1       1
      3  2.50000000E+03  3.65419678E+03  1.63912494E-02  2.98780322E+00  9.72536562E+04   11   26    1       1
      3  2.75000000E+03  3.73975854E+03  1.11884708E-02  6.62495971E-01  1.07778391E+05   12   26    1       1
      3  2.80845752E+03  3.75000000E+03  1.04731154E-02  8.25373650E-01  1.09495445E+05   12   25    1       1
      3  3.00000000E+03  3.77742920E+03  8.76880158E-03  5.04922330E-01  1.14143125E+05   13   25    1       1
      3  3.25000000E+03  3.78352881E+03  7.27738347E-03  4.58301455E-01  1.18728914E+05   14   25    1       1
      3  3.50000000E+03  3.76507153E+03  6.28121337E-03  7.07502127E-01  1.22022328E+05   15   25    1       1
      3  3.56824121E+03  3.75000000E+03  5.97912446E-03  3.84646446E-01  1.23047836E+05   15   26    1       1
      3  3.63597388E+03  3.50000000E+03  2.40637851E-03  5.06253421E-01  1.41462969E+05   15   27    1       1
      3  3.63358521E+03  3.25000000E+03  8.16276006E-04  3.96057546E-01  1.63111047E+05   15   28    1       1
      3  3.63230054E+03  3.00000000E+03  2.32643215E-04  2.13497296E-01  1.88147531E+05   15   29    1       1
      3  3.63463281E+03  2.75000000E+03  4.92507606E-05  6.90204442E-01  2.17538641E+05   15   30    1       1
      3  3.63767871E+03  2.50000000E+03  8.15608109E-06  1.40553201E-02  2.52726875E+05   15   31    1       1
      3  3.63193677E+03  2.25000000E+03  1.81553355E-06  4.12483424E-01  2.80781938E+05   15   32    1       1
      3  3.63225391E+03  2.00000000E+03  5.13842167E-07  5.69496453E-01  3.03600469E+05   15   33    1       1
      3  3.63533887E+03  1.75000000E+03  1.37382429E-07  7.10911691E-01  3.27132062E+05   15   34    1       1
      3  3.61868799E+03  1.50000000E+03  3.49592923E-08  6.92320406E-01  3.49975594E+05   15   35    1       1
      3  3.61768018E+03  1.25000000E+03  1.00940509E-08  5.87880135E-01  3.69741469E+05   15   36    1       1
      3  3.61807153E+03  1.00000000E+03  4.99700503E-09  2.50270069E-01  3.85970844E+05   15   37    1       1
      3  3.61893311E+03  7.50000000E+02  2.50722954E-09  6.49440289E-02  3.97580656E+05   15   38    1       1
      3  3.62332593E+03  5.00000000E+02  2.62454014E-09  3.71510029E-01  4.05483875E+05   15   39    1       1
      3  3.62336133E+03  2.50000000E+02  5.49739188E-09  6.74920082E-01  4.13527969E+05   15   40    1       1
      4  5.31250000E+02  6.78125000E+03  9.99000013E-01  2.88365440E+01  0.00000000E+00    3   13    1       1
      4  5.40400391E+02  6.75000000E+03  8.71357918E-01  2.69275932E+01  2.95782275E+03    3   14    1       1
      4  5.89854858E+02  6.50000000E+03  4.38895613E-01  1.92125645E+01  1.99431152E+04    3   15    1       1
      4  6.14176270E+02  6.25000000E+03  2.98076510E-01  1.59918661E+01  3.01193828E+04    3   16    1       1
      4  6.18906189E+02  6.00000000E+03  2.27638528E-01  1.45608644E+01  3.72331484E+04    3   17    1       1
      4  6.17114014E+02  5.75000000E+03  1.85477018E-01  1.27989368E+01  4.29446719E+04    3   18    1       1
      4  6.19001343E+02  5.50000000E+03  1.58027619E-01  1.02953739E+01  4.79004102E+04    3   19    1       1
      4  6.20975464E+02  5.25000000E+03  1.38804480E-01  9.11468983E+00  5.20257109E+04    3   20    1       1
      4  6.25798523E+02  5.00000000E+03  1.24050632E-01  6.93828154E+00  5.58841211E+04    3   21    1       1
      4  6.36334473E+02  4.75000000E+03  1.12190910E-01  1.00584507E+01  5.87091172E+04    3   22    1       1
      4  6.55961304E+02  4.50000000E+03  1.02642871E-01  6.99741936E+00  6.15514141E+04    3   23    1       1
      4  7.14946533E+02  4.25000000E+03  9.43042487E-02  7.43782759E+00  6.41060742E+04    3   24    1       1
      4  7.50000000E+02  4.14468262E+03  9.09171999E-02  8.80340481E+00  6.50975352E+04    4   24    1       1
      4  8.35816101E+02  4.00000000E+03  8.41109827E-02  1.07517691E+01  6.69265625E+04    4   25    1       1
      4  1.00000000E+03  3.78556665E+03  7.41023123E-02  1.37243567E+01  6.91807812E+04    5   25    1       1
      4  1.05551379E+03  3.75000000E+03  7.13690519E-02  1.20662069E+01  6.99115547E+04    5   26    1       1
      4  1.25000000E+03  3.62849707E+03  6.28016517E-02  7.64964819E+00  7.31732578E+04    6   26    1       1
      4  1.50000000E+03  3.55558008E+03  5.36269695E-02  5.20880127E+00  7.75979375E+04    7   26    1       1
      4  1.75000000E+03  3.52744336E+03  4.55871150E-02  6.91860342E+00  8.14991250E+04    8   26    1       1
      4  2.00000000E+03  3.53549878E+03  3.82665619E-02  4.72541380E+00  8.60610859E+04    9   26    1       1
      4  2.25000000E+03  3.56830225E+03  3.22404429E-02  4.03270340E+00  9.04663672E+04   10   26    1       1
      4  2.50000000E+03  3.65419678E+03  2.45623160E-02  3.12873125E+00  9.72536562E+04   11   26    1       1
      4  2.75000000E+03  3.73975854E+03  1.67659447E-02  7.68749654E-01  1.07778391E+05   12   26    1       1
      4  2.80845752E+03  3.75000000E+03  1.56939793E-02  9.19153571E-01  1.09495445E+05   12   25    1       1
      4  3.00000000E+03  3.77742920E+03  1.31400609E-02  5.83985806E-01  1.14143125E+05   13   25    1       1
      4  3.25000000E+03  3.78352881E+03  1.09051680E-02  5.19981742E-01  1.18728914E+05   14   25    1       1
      4  3.50000000E+03  3.76507153E+03  9.41241346E-03  7.55922735E-01  1.22022328E+05   15   25    1       1
      4  3.56824121E+03  3.75000000E+03  8.95973016E-03  4.27510858E-01  1.23047836E+05   15   26    1       1
      4  3.63597388E+03  3.50000000E+03  3.60596087E-03  5.23029685E-01  1.41462969E+05   15   27    1       1
      4  3.63358521E+03  3.25000000E+03  1.22319208E-03  4.01689410E-01  1.63111047E+05   15   28    1       1
      4  3.63230054E+03  3.00000000E+03  3.48616770E-04  2.15096146E-01  1.88147531E+05   15   29    1       1
      4  3.63463281E+03  2.75000000E+03  7.38032613E-05  6.90525711E-01  2.17538641E+05   15   30    1       1
      4  3.63767871E+03  2.50000000E+03  1.22220381E-05  1.41103165E-02  2.52726875E+05   15   31    1       1
      4  3.63193677E+03  2.25000000E+03  2.71868066E-06  4.12495077E-01  2.80781938E+05   15   32    1       1
      4  3.63225391E+03  2.00000000E+03  7.70763279E-07  5.69499671E-01  3.03600469E+05   15   33    1       1
      4  3.63533887E+03  1.75000000E+03  2.01167140E-07  7.10912466E-01  3.27132062E+05   15   34    1       1
      4  3.61868799E+03  1.50000000E+03  5.49360308E-08  6.92320645E-01  3.49975594E+05   15   35    1       1
      4  3.61768018E+03  1.25000000E+03  1.51410759E-08  5.87880194E-01  3.69741469E+05   15   36    1       1
      4  3.61807153E+03  1.00000000E+03  4.99700503E-09  2.50270069E-01  3.85970844E+05   15   37    1       1
      4  3.61893311E+03  7.50000000E+02  2.50722954E-09  6.49440289E-02  3.97580656E+05   15   38    1       1
      4  3.62332593E+03  5.00000000E+02  2.62454014E-09  3.71510029E-01  4.05483875E+05   15   39    1       1
      4  3.62336133E+03  2.50000000E+02  5.49739188E-09  6.74920082E-01  4.13527969E+05   15   40    1       1
      5  5.93750000E+02  6.78125000E+03  1.00000005E-03  1.39109554E+01  0.00000000E+00    3   13    1       1
      5  6.02306274E+02  6.75000000E+03  8.72211414E-04  1.39090443E+01  2.95782275E+03    3   14    1       1
      5  6.48284729E+02  6.50000000E+03  4.39366733E-04  1.17065220E+01  1.99431152E+04    3   15    1       1
      5  6.70025879E+02  6.25000000E+03  2.98438856E-04  1.05784254E+01  3.01193828E+04    3   16    1       1
      5  6.73145081E+02  6.00000000E+03  2.27923767E-04  1.04131575E+01  3.72331484E+04    3   17    1       1
      5  6.68813293E+02  5.75000000E+03  1.85700279E-04  9.22767925E+00  4.29446719E+04    3   18    1       1
      5  6.66749817E+02  5.50000000E+03  1.58208204E-04  6.91898346E+00  4.79004102E+04    3   19    1       1
      5  6.66198975E+02  5.25000000E+03  1.38990188E-04  6.06625557E+00  5.20257109E+04    3   20    1       1
      5  6.71379211E+02  5.00000000E+03  1.24211831E-04  3.99724770E+00  5.58841211E+04    3   21    1       1
      5  6.81091248E+02  4.75000000E+03  1.12340647E-04  7.88058281E+00  5.87091172E+04    3   22    1       1
      5  6.99130432E+02  4.50000000E+03  1.02761733E-04  4.73256969E+00  6.15514141E+04    3   23    1       1
      5  7.50000000E+02  4.29877051E+03  9.60296456E-05  5.47450113E+00  6.36023242E+04    4   23    1       1
      5  7.67653320E+02  4.25000000E+03  9.39940073E-05  8.63704681E+00  6.41530586E+04    4   24    1       1
      5  9.27683960E+02  4.00000000E+03  8.26463584E-05  9.38654232E+00  6.71682344E+04    4   25    1       1
      5  1.00000000E+03  3.90887354E+03  7.83185678E-05  1.28139629E+01  6.81136094E+04    5   25    1       1
      5  1.25000000E+03  3.75628345E+03  6.76224226E-05  1.11079092E+01  7.09802031E+04    6   25    1       1
      5  1.29018152E+03  3.75000000E+03  6.62819730E-05  5.24282169E+00  7.15076875E+04    6   26    1       1
      5  1.50000000E+03  3.70518140E+03  5.80617489E-05  4.17142439E+00  7.52170312E+04    7   26    1       1
      5  1.75000000E+03  3.71628857E+03  4.93747539E-05  6.16261959E+00  7.91182188E+04    8   26    1       1
      5  1.89456567E+03  3.75000000E+03  4.46832673E-05  4.03690481E+00  8.17119688E+04    8   25    1       1
      5  2.00000000E+03  3.78297485E+03  4.12588888E-05  5.60407209E+00  8.35862656E+04    9   25    1       1
      5  2.25000000E+03  3.86129883E+03  3.31740739E-05  6.76727247E+00  8.80969922E+04   10   25    1       1
      5  2.50000000E+03  3.90718042E+03  2.54631705E-05  1.78176463E+00  9.50817266E+04   11   25    1       1
      5  2.75000000E+03  3.99979419E+03  1.91253857E-05  6.45867050E-01  1.02810336E+05   12   25    1       1
      5  2.75128320E+03  4.00000000E+03  1.90986066E-05  3.46665442E-01  1.02846688E+05   12   24    1       1
      5  3.00000000E+03  4.01861255E+03  1.68331462E-05  1.32968605E+00  1.05946516E+05   13   24    1       1
      5  3.25000000E+03  4.01338159E+03  1.50725546E-05  1.60283756E+00  1.08470109E+05   14   24    1       1
      5  3.38811768E+03  4.00000000E+03  1.42593944E-05  1.17311466E+00  1.09681898E+05   14   25    1       1
      5  3.50000000E+03  3.98532593E+03  1.34018692E-05  6.10577226E-01  1.11066078E+05   15   25    1       1
      5  3.64069922E+03  3.75000000E+03  6.84074303E-06  2.98758388E-01  1.25055656E+05   15   26    1       1
      5  3.63597461E+03  3.50000000E+03  2.75326170E-06  4.72638518E-01  1.43470797E+05   15   27    1       1
      5  3.63358521E+03  3.25000000E+03  9.34528316E-07  3.84772927E-01  1.65118875E+05   15   28    1       1
      5  3.63230054E+03  3.00000000E+03  2.66973643E-07  2.10293680E-01  1.90155375E+05   15   29    1       1
      5  3.63463281E+03  2.75000000E+03  5.46623333E-08  6.89560711E-01  2.19546484E+05   15   30    1       1
      5  3.63767871E+03  2.50000000E+03  9.01985242E-09  1.39451222E-02  2.54734719E+05   15   31    1       1
      5  3.63193677E+03  2.25000000E+03  2.30983899E-09  4.12460029E-01  2.82789750E+05   15   32    1       1
      5  3.63225391E+03  2.00000000E+03  9.99998767E-04  5.82017779E-01  3.05608281E+05   15   33    1       1
      5  3.63533887E+03  1.75000000E+03  2.62130605E-04  7.14094400E-01  3.29139875E+05   15   34    1       1
      5  3.61868799E+03  1.50000000E+03  6.98137083E-05  6.93153203E-01  3.51983406E+05   15   35    1       1
      5  3.61768018E+03  1.25000000E+03  2.19545600E-05  5.88139296E-01  3.71749281E+05   15   36    1       1
      5  3.61807153E+03  1.00000000E+03  8.57236228E-06  2.50372261E-01  3.87978656E+05   15   37    1       1
      5  3.61893311E+03  7.50000000E+02  4.36383289E-06  6.49958700E-02  3.99588469E+05   15   38    1       1
      5  3.62332593E+03  5.00000000E+02  2.69802717E-06  3.71540636E-01  4.07491688E+05   15   39    1       1
      5  3.62336133E+03  2.50000000E+02  1.61623313E-06  6.74937546E-01  4.15535781E+05   15   40    1       1
      6  5.93750000E+02  6.78125000E+03  3.33333343E-01  1.88811646E+01  0.00000000E+00    3   13    1       1
      6  6.02306274E+02  6.75000000E+03  2.90743291E-01  1.82442112E+01  2.95782275E+03    3   14    1       1
      6  6.48284729E+02  6.50000000E+03  1.46444932E-01  1.42060280E+01  1.99431152E+04    3   15    1       1
      6  6.70025879E+02  6.25000000E+03  9.94582996E-02  1.23810968E+01  3.01193828E+04    3   16    1       1
      6  6.73145081E+02  6.00000000E+03  7.59554505E-02  1.17943401E+01  3.72331484E+04    3   17    1       1
      6  6.68813293E+02  5.75000000E+03  6.18875250E-02  1.04169044E+01  4.29446719E+04    3   18    1       1
      6  6.66749817E+02  5.50000000E+03  5.27285933E-02  8.04331875E+00  4.79004102E+04    3   19    1       1
      6  6.66198975E+02  5.25000000E+03  4.63144928E-02  7.08138180E+00  5.20257109E+04    3   20    1       1
      6  6.71379211E+02  5.00000000E+03  4.13916148E-02  4.97660971E+00  5.58841211E+04    3   21    1       1
      6  6.81091248E+02  4.75000000E+03  3.74344178E-02  8.60581112E+00  5.87091172E+04    3   22    1       1
      6  6.99130432E+02  4.50000000E+03  3.42485420E-02  5.48676300E+00  6.15514141E+04    3   23    1       1
      6  7.50000000E+02  4.29877051E+03  3.19963619E-02  6.13931322E+00  6.36023242E+04    4   23    1       1
      6  7.67653320E+02  4.25000000E+03  3.13087106E-02  9.18400192E+00  6.41530586E+04    4   24    1       1
      6  9.27683960E+02  4.00000000E+03  2.75395494E-02  9.83264065E+00  6.71682344E+04    4   25    1       1
      6  1.00000000E+03  3.90887354E+03  2.61145122E-02  1.31341724E+01  6.81136094E+04    5   25    1       1
      6  1.25000000E+03  3.75628345E+03  2.25348715E-02  1.14098711E+01  7.09802031E+04    6   25    1       1
      6  1.29018152E+03  3.75000000E+03  2.20934730E-02  5.64880943E+00  7.15076875E+04    6   26    1       1
      6  1.50000000E+03  3.70518140E+03  1.93537436E-02  4.54509068E+00  7.52170312E+04    7   26    1       1
      6  1.75000000E+03  3.71628857E+03  1.64521616E-02  6.43492651E+00  7.91182188E+04    8   26    1       1
      6  1.89456567E+03  3.75000000E+03  1.48936110E-02  4.30438566E+00  8.17119688E+04    8   25    1       1
      6  2.00000000E+03  3.78297485E+03  1.37546426E-02  5.82738209E+00  8.35862656E+04    9   25    1       1
      6  2.25000000E+03  3.86129883E+03  1.10507160E-02  6.92421103E+00  8.80969922E+04   10   25    1       1
      6  2.50000000E+03  3.90718042E+03  8.48195981E-03  1.93608737E+00  9.50817266E+04   11   25    1       1
      6  2.75000000E+03  3.99979419E+03  6.37116097E-03  7.64446557E-01  1.02810336E+05   12   25    1       1
      6  2.75128320E+03  4.00000000E+03  6.36231899E-03  4.61396009E-01  1.02846688E+05   12   24    1       1
      6  3.00000000E+03  4.01861255E+03  5.60876215E-03  1.42472851E+00  1.05946516E+05   13   24    1       1
      6  3.25000000E+03  4.01338159E+03  5.02120284E-03  1.68174767E+00  1.08470109E+05   14   24    1       1
      6  3.38811768E+03  4.00000000E+03  4.74949460E-03  1.24441051E+00  1.09681898E+05   14   25    1       1
      6  3.50000000E+03  3.98532593E+03  4.46455320E-03  6.79409444E-01  1.11066078E+05   15   25    1       1
      6  3.64069922E+03  3.75000000E+03  2.27911561E-03  3.31436217E-01  1.25055656E+05   15   26    1       1
      6  3.63597461E+03  3.50000000E+03  9.17260244E-04  4.85427976E-01  1.43470797E+05   15   27    1       1
      6  3.63358521E+03  3.25000000E+03  3.11148411E-04  3.89066398E-01  1.65118875E+05   15   28    1       1
      6  3.63230054E+03  3.00000000E+03  8.86795679E-05  2.11512566E-01  1.90155375E+05   15   29    1       1
      6  3.63463281E+03  2.75000000E+03  1.87765108E-05  6.89805686E-01  2.19546484E+05   15   30    1       1
      6  3.63767871E+03  2.50000000E+03  3.10943915E-06  1.39870588E-02  2.54734719E+05   15   31    1       1
      6  3.63193677E+03  2.25000000E+03  6.90641912E-07  4.12468910E-01  2.82789750E+05   15   32    1       1
      6  3.63225391E+03  2.00000000E+03  1.95069717E-07  5.69492459E-01  3.05608281E+05   15   33    1       1
      6  3.63533887E+03  1.75000000E+03  4.90651573E-08  7.10910618E-01  3.29139875E+05   15   34    1       1
      6  3.61868799E+03  1.50000000E+03  9.98836924E-09  6.92320108E-01  3.51983406E+05   15   35    1       1
      6  3.61768018E+03  1.25000000E+03  5.04702546E-09  5.87880075E-01  3.71749281E+05   15   36    1       1
      6  3.61807153E+03  1.00000000E+03  2.49850252E-09  2.50270039E-01  3.87978656E+05   15   37    1       1
      6  3.61893311E+03  7.50000000E+02  1.25361477E-09  6.49440140E-02  3.99588469E+05   15   38    1       1
      6  3.62332593E+03  5.00000000E+02  9.99999698E-04  3.82865250E-01  4.07491688E+05   15   39    1       1
      6  3.62336133E+03  2.50000000E+02  5.98814397E-04  6.81412578E-01  4.15535781E+05   15   40    1       1
      7  5.93750000E+02  6.78125000E+03  6.66666687E-01  2.38663330E+01  0.00000000E+00    3   13    1       1
      7  6.02306274E+02  6.75000000E+03  5.81486702E-01  2.25924244E+01  2.95782275E+03    3   14    1       1
      7  6.48284729E+02  6.50000000E+03  2.92889923E-01  1.67130566E+01  1.99431152E+04    3   15    1       1
      7  6.70025879E+02  6.25000000E+03  1.98916540E-01  1.41891928E+01  3.01193828E+04    3   16    1       1
      7  6.73145081E+02  6.00000000E+03  1.51910901E-01  1.31796799E+01  3.72331484E+04    3   17    1       1
      7  6.68813293E+02  5.75000000E+03  1.23775050E-01  1.16097088E+01  4.29446719E+04    3   18    1       1
      7  6.66749817E+02  5.50000000E+03  1.05457142E-01  9.17103672E+00  4.79004102E+04    3   19    1       1
      7  6.66198975E+02  5.25000000E+03  9.26289409E-02  8.09956264E+00  5.20257109E+04    3   20    1       1
      7  6.71379211E+02  5.00000000E+03  8.27832073E-02  5.95891905E+00  5.58841211E+04    3   21    1       1
      7  6.81091248E+02  4.75000000E+03  7.48687834E-02  9.33322144E+00  5.87091172E+04    3   22    1       1
      7  6.99130432E+02  4.50000000E+03  6.84970617E-02  6.24322557E+00  6.15514141E+04    3   23    1       1