@ [ MODPATH 5.0 (TREF=   0.000000E+00 ) ]
      1  5.31250000E+02  6.78125000E+03  1.00000005E-03  1.39107962E+01  0.00000000E+00    3   13    1       1
      1  5.56710632E+02  6.75000000E+03  5.68293210E-04  1.39044085E+01  1.20977363E+04    3   14    1       1
      1  6.25977295E+02  6.50000000E+03  1.36431423E-04  1.17013168E+01  4.71475312E+04    3   15    1       1
      1  6.49585266E+02  6.25000000E+03  8.01709757E-05  1.05744467E+01  6.10161758E+04    3   16    1       1
      1  6.53984741E+02  6.00000000E+03  5.76800740E-05  1.04100447E+01  6.96336953E+04    3   17    1       1
      1  6.52665771E+02  5.75000000E+03  4.55889895E-05  9.22497272E+00  7.61480234E+04    3   18    1       1
      1  6.56586548E+02  5.50000000E+03  3.81883547E-05  6.91641188E+00  8.15938750E+04    3   19    1       1
      1  6.62900391E+02  5.25000000E+03  3.32193631E-05  6.06392717E+00  8.60045156E+04    3   20    1       1
      1  6.76934448E+02  5.00000000E+03  2.95332720E-05  3.99499965E+00  9.00458438E+04    3   21    1       1
      1  7.00692444E+02  4.75000000E+03  2.66187690E-05  7.87891865E+00  9.29899688E+04    3   22    1       1
      1  7.42769470E+02  4.50000000E+03  2.42402148E-05  4.73083973E+00  9.60151484E+04    3   23    1       1
      1  7.50000000E+02  4.48367822E+03  2.41175421E-05  5.47300959E+00  9.61945391E+04    4   23    1       1
      1  8.61009033E+02  4.25000000E+03  2.22083472E-05  8.63579464E+00  9.82679766E+04    4   24    1       1
      1  1.00000000E+03  4.10488086E+03  2.09211339E-05  9.38554573E+00  9.96514609E+04    5   24    1       1
      1  1.16716724E+03  4.00000000E+03  1.97372410E-05  1.10122786E+01  1.00831914E+05    5   25    1       1
      1  1.25000000E+03  3.94579175E+03  1.90600367E-05  1.11072531E+01  1.01452234E+05    6   25    1       1
      1  1.50000000E+03  3.88180200E+03  1.74088873E-05  5.24191475E+00  1.03795016E+05    7   25    1       1
      1  1.75000000E+03  3.88706982E+03  1.58747753E-05  5.79936218E+00  1.05999781E+05    8   25    1       1
      1  2.00000000E+03  3.90539648E+03  1.43218404E-05  5.60362625E+00  1.08383562E+05    9   25    1       1
      1  2.25000000E+03  3.91838403E+03  1.28439888E-05  6.76697588E+00  1.10562688E+05   10   25    1       1
      1  2.50000000E+03  3.91397559E+03  1.14621944E-05  1.78150403E+00  1.13498602E+05   11   25    1       1
      1  2.75000000E+03  3.93080786E+03  1.01925098E-05  6.45695984E-01  1.16602164E+05   12   25    1       1
      1  3.00000000E+03  3.94727905E+03  9.10879680E-06  3.46482456E-01  1.19502766E+05   13   25    1       1
      1  3.25000000E+03  3.96022021E+03  8.19807246E-06  3.34709853E-01  1.22104648E+05   14   25    1       1
      1  3.50000000E+03  3.96336499E+03  7.41882013E-06  6.10487938E-01  1.24409289E+05   15   25    1       1
      2  5.31250000E+02  6.78125000E+03  3.33333343E-01  1.88280449E+01  0.00000000E+00    3   13    1       1
      2  5.56710632E+02  6.75000000E+03  1.89425915E-01  1.66987724E+01  1.20977363E+04    3   14    1       1
      2  6.25977295E+02  6.50000000E+03  4.54746895E-02  1.24711170E+01  4.71475312E+04    3   15    1       1
      2  6.49585266E+02  6.25000000E+03  2.67341398E-02  1.10554304E+01  6.10161758E+04    3   16    1       1
      2  6.53984741E+02  6.00000000E+03  1.92390177E-02  1.07573147E+01  6.96336953E+04    3   17    1       1
      2  6.52665771E+02  5.75000000E+03  1.52061451E-02  9.51515865E+00  7.61480234E+04    3   18    1       1
      2  6.56586548E+02  5.50000000E+03  1.27391685E-02  7.18649101E+00  8.15938750E+04    3   19    1       1
      2  6.62900391E+02  5.25000000E+03  1.10830031E-02  6.30580854E+00  8.60045156E+04    3   20    1       1
      2  6.76934448E+02  5.00000000E+03  9.85046849E-03  4.22769594E+00  9.00458438E+04    3   21    1       1
      2  7.00692444E+02  4.75000000E+03  8.87383614E-03  8.05135059E+00  9.29899688E+04    3   22    1       1
      2  7.42769470E+02  4.50000000E+03  8.07848014E-03  4.91019106E+00  9.60151484E+04    3   23    1       1
      2  7.50000000E+02  4.48367822E+03  8.03120900E-03  5.64224434E+00  9.61945391E+04    4   23    1       1
      2  8.61009033E+02  4.25000000E+03  7.40921916E-03  8.76712132E+00  9.82679766E+04    4   24    1       1
      2  1.00000000E+03  4.10488086E+03  6.99313404E-03  9.50091553E+00  9.96514609E+04    5   24    1       1
      2  1.16716724E+03  4.00000000E+03  6.60021463E-03  1.11051226E+01  1.00831914E+05    5   25    1       1
      2  1.25000000E+03  3.94579175E+03  6.39021909E-03  1.11917305E+01  1.01452234E+05    6   25    1       1
      2  1.50000000E+03  3.88180200E+03  5.84271271E-03  5.34722281E+00  1.03795016E+05    7   25    1       1
      2  1.75000000E+03  3.88706982E+03  5.32786315E-03  5.88711929E+00  1.05999781E+05    8   25    1       1
      2  2.00000000E+03  3.90539648E+03  4.79965936E-03  5.67914629E+00  1.08383562E+05    9   25    1       1
      2  2.25000000E+03  3.91838403E+03  4.29991679E-03  6.82570553E+00  1.10562688E+05   10   25    1       1
      2  2.50000000E+03  3.91397559E+03  3.83674214E-03  1.84961379E+00  1.13498602E+05   11   25    1       1
      2  2.75000000E+03  3.93080786E+03  3.41115217E-03  7.07747877E-01  1.16602164E+05   12   25    1       1
      2  3.00000000E+03  3.94727905E+03  3.04845395E-03  4.00688201E-01  1.19502766E+05   13   25    1       1
      2  3.25000000E+03  3.96022021E+03  2.74345791E-03  3.81374449E-01  1.22104648E+05   14   25    1       1
      2  3.50000000E+03  3.96336499E+03  2.48191599E-03  6.49831891E-01  1.24409289E+05   15   25    1       1
      3  5.31250000E+02  6.78125000E+03  6.66666687E-01  2.37600937E+01  0.00000000E+00    3   13    1       1
      3  5.56710632E+02  6.75000000E+03  3.78852099E-01  1.95015488E+01  1.20977363E+04    3   14    1       1
      3  6.25977295E+02  6.50000000E+03  9.09494311E-02  1.32432346E+01  4.71475312E+04    3   15    1       1
      3  6.49585266E+02  6.25000000E+03  5.34683838E-02  1.15378628E+01  6.10161758E+04    3   16    1       1
      3  6.53984741E+02  6.00000000E+03  3.84780876E-02  1.11056299E+01  6.96336953E+04    3   17    1       1
      3  6.52665771E+02  5.75000000E+03  3.04123405E-02  9.80621815E+00  7.61480234E+04    3   18    1       1
      3  6.56586548E+02  5.50000000E+03  2.54784040E-02  7.45738363E+00  8.15938750E+04    3   19    1       1
      3  6.62900391E+02  5.25000000E+03  2.21660286E-02  6.54841757E+00  8.60045156E+04    3   20    1       1
      3  6.76934448E+02  5.00000000E+03  1.97009556E-02  4.46109247E+00  9.00458438E+04    3   21    1       1
      3  7.00692444E+02  4.75000000E+03  1.77477207E-02  8.22430229E+00  9.29899688E+04    3   22    1       1
      3  7.42769470E+02  4.50000000E+03  1.61570460E-02  5.09008408E+00  9.60151484E+04    3   23    1       1
      3  7.50000000E+02  4.48367822E+03  1.60625316E-02  5.81199121E+00  9.61945391E+04    4   23    1       1
      3  8.61009033E+02  4.25000000E+03  1.48184923E-02  8.89884377E+00  9.82679766E+04    4   24    1       1
      3  1.00000000E+03  4.10488086E+03  1.39863836E-02  9.61663342E+00  9.96514609E+04    5   24    1       1
      3  1.16716724E+03  4.00000000E+03  1.32004293E-02  1.11982450E+01  1.00831914E+05    5   25    1       1
      3  1.25000000E+03  3.94579175E+03  1.27804382E-02  1.12764606E+01  1.01452234E+05    6   25    1       1
      3  1.50000000E+03  3.88180200E+03  1.16853984E-02  5.45284510E+00  1.03795016E+05    7   25    1       1
      3  1.75000000E+03  3.88706982E+03  1.06556974E-02  5.97513819E+00  1.05999781E+05    8   25    1       1
      3  2.00000000E+03  3.90539648E+03  9.59928893E-03  5.75489187E+00  1.08383562E+05    9   25    1       1
      3  2.25000000E+03  3.91838403E+03  8.59983359E-03  6.88461113E+00  1.10562688E+05   10   25    1       1
      3  2.50000000E+03  3.91397559E+03  7.67347729E-03  1.91792750E+00  1.13498602E+05   11   25    1       1
      3  2.75000000E+03  3.93080786E+03  6.82229456E-03  7.69985557E-01  1.16602164E+05   12   25    1       1
      3  3.00000000E+03  3.94727905E+03  6.09689951E-03  4.55056250E-01  1.19502766E+05   13   25    1       1
      3  3.25000000E+03  3.96022021E+03  5.48690883E-03  4.28178787E-01  1.22104648E+05   14   25    1       1
      3  3.50000000E+03  3.96336499E+03  4.96382825E-03  6.89293742E-01  1.24409289E+05   15   25    1       1
      4  5.31250000E+02  6.78125000E+03  9.99000013E-01  2.86773434E+01  0.00000000E+00    3   13    1       1
      4  5.56710632E+02  6.75000000E+03  5.67709804E-01  2.22959137E+01  1.20977363E+04    3   14    1       1
      4  6.25977295E+02  6.50000000E+03  1.36287689E-01  1.40130348E+01  4.71475312E+04    3   15    1       1
      4  6.49585266E+02  6.25000000E+03  8.01222995E-02  1.20188456E+01  6.10161758E+04    3   16    1       1
      4  6.53984741E+02  6.00000000E+03  5.76593727E-02  1.14528990E+01  6.96336953E+04    3   17    1       1
      4  6.52665771E+02  5.75000000E+03  4.55728471E-02  1.00964031E+01  7.61480234E+04    3   18    1       1
      4  6.56586548E+02  5.50000000E+03  3.81793603E-02  7.72746229E+00  8.15938750E+04    3   19    1       1
      4  6.62900391E+02  5.25000000E+03  3.32157686E-02  6.79029799E+00  8.60045156E+04    3   20    1       1
      4  6.76934448E+02  5.00000000E+03  2.95218602E-02  4.69378805E+00  9.00458438E+04    3   21    1       1
      4  7.00692444E+02  4.75000000E+03  2.65948903E-02  8.39673328E+00  9.29899688E+04    3   22    1       1
      4  7.42769470E+02  4.50000000E+03  2.42112428E-02  5.26943445E+00  9.60151484E+04    3   23    1       1
      4  7.50000000E+02  4.48367822E+03  2.40696445E-02  5.98122644E+00  9.61945391E+04    4   23    1       1
      4  8.61009033E+02  4.25000000E+03  2.22053956E-02  9.03016853E+00  9.82679766E+04    4   24    1       1
      4  1.00000000E+03  4.10488086E+03  2.09584814E-02  9.73200130E+00  9.96514609E+04    5   24    1       1
      4  1.16716724E+03  4.00000000E+03  1.97807718E-02  1.12910872E+01  1.00831914E+05    5   25    1       1
      4  1.25000000E+03  3.94579175E+03  1.91513803E-02  1.13609352E+01  1.01452234E+05    6   25    1       1
      4  1.50000000E+03  3.88180200E+03  1.75104644E-02  5.55814886E+00  1.03795016E+05    7   25    1       1
      4  1.75000000E+03  3.88706982E+03  1.59674846E-02  6.06289196E+00  1.05999781E+05    8   25    1       1
      4  2.00000000E+03  3.90539648E+03  1.43844755E-02  5.83040953E+00  1.08383562E+05    9   25    1       1
      4  2.25000000E+03  3.91838403E+03  1.28867673E-02  6.94333887E+00  1.10562688E+05   10   25    1       1
      4  2.50000000E+03  3.91397559E+03  1.14986366E-02  1.98603511E+00  1.13498602E+05   11   25    1       1
      4  2.75000000E+03  3.93080786E+03  1.02231465E-02  8.32035482E-01  1.16602164E+05   12   25    1       1
      4  3.00000000E+03  3.94727905E+03  9.13614593E-03  5.09260237E-01  1.19502766E+05   13   25    1       1
      4  3.25000000E+03  3.96022021E+03  8.22208263E-03  4.74841923E-01  1.22104648E+05   14   25    1       1
      4  3.50000000E+03  3.96336499E+03  7.43824663E-03  7.28636444E-01  1.24409289E+05   15   25    1       1
      5  5.93750000E+02  6.78125000E+03  1.00000005E-03  1.39107962E+01  0.00000000E+00    3   13    1       1
      5  6.17044739E+02  6.75000000E+03  5.68293210E-04  1.39044085E+01  1.20977363E+04    3   14    1       1
      5  6.79703308E+02  6.50000000E+03  1.36431423E-04  1.17013168E+01  4.71475312E+04    3   15    1       1
      5  6.99797485E+02  6.25000000E+03  8.01709757E-05  1.05744467E+01  6.10161758E+04    3   16    1       1
      5  7.01817322E+02  6.00000000E+03  5.76800740E-05  1.04100447E+01  6.96336953E+04    3   17    1       1
      5  6.97593994E+02  5.75000000E+03  4.55889895E-05  9.22497272E+00  7.61480234E+04    3   18    1       1
      5  6.97443176E+02  5.50000000E+03  3.81883547E-05  6.91641188E+00  8.15938750E+04    3   19    1       1
      5  7.00965576E+02  5.25000000E+03  3.32193631E-05  6.06392717E+00  8.60045156E+04    3   20    1       1
      5  7.14712708E+02  5.00000000E+03  2.95332720E-05  3.99499965E+00  9.00458438E+04    3   21    1       1
      5  7.37980835E+02  4.75000000E+03  2.66187690E-05  7.87891865E+00  9.29899688E+04    3   22    1       1
      5  7.50000000E+02  4.68094775E+03  2.59104763E-05  4.73087692E+00  9.38546953E+04    4   22    1       1
      5  7.76869690E+02  4.50000000E+03  2.43395498E-05  8.28115368E+00  9.55677578E+04    4   23    1       1
      5  9.02561646E+02  4.25000000E+03  2.23692768E-05  8.63579750E+00  9.77767422E+04    4   24    1       1
      5  1.00000000E+03  4.14915918E+03  2.14974734E-05  9.38555527E+00  9.87137969E+04    5   24    1       1
      5  1.24061047E+03  4.00000000E+03  1.98048347E-05  1.10122795E+01  1.00361750E+05    5   25    1       1
      5  1.25000000E+03  3.99394189E+03  1.97792833E-05  1.11072626E+01  1.00429109E+05    6   25    1       1
      5  1.50000000E+03  3.93068018E+03  1.80683146E-05  5.24192667E+00  1.02771891E+05    7   25    1       1
      5  1.75000000E+03  3.94837476E+03  1.64809026E-05  5.79937220E+00  1.04976656E+05    8   25    1       1
      5  2.00000000E+03  3.98158496E+03  1.48354929E-05  5.60363436E+00  1.07360438E+05    9   25    1       1
      5  2.22087305E+03  4.00000000E+03  1.34705251E-05  6.76698446E+00  1.09286859E+05    9   24    1       1
      5  2.25000000E+03  4.00299487E+03  1.32806254E-05  7.02247715E+00  1.09575438E+05   10   24    1       1
      5  2.50000000E+03  4.01819019E+03  1.16363763E-05  5.08176851E+00  1.12287234E+05   11   24    1       1
      5  2.75000000E+03  4.04734668E+03  1.02415097E-05  1.49007750E+00  1.15484773E+05   12   24    1       1
      5  3.00000000E+03  4.07168506E+03  9.07228696E-06  1.32955229E+00  1.18429250E+05   13   24    1       1
      5  3.25000000E+03  4.09379517E+03  8.08839468E-06  1.60272729E+00  1.21048055E+05   14   24    1       1
      5  3.50000000E+03  4.11895605E+03  7.19924810E-06  1.17301023E+00  1.23617727E+05   15   24    1       1
      6  5.93750000E+02  6.78125000E+03  3.33333343E-01  1.88280449E+01  0.00000000E+00    3   13    1       1
      6  6.17044739E+02  6.75000000E+03  1.89425915E-01  1.66987724E+01  1.20977363E+04    3   14    1       1
      6  6.79703308E+02  6.50000000E+03  4.54746895E-02  1.24711170E+01  4.71475312E+04    3   15    1       1
      6  6.99797485E+02  6.25000000E+03  2.67341398E-02  1.10554304E+01  6.10161758E+04    3   16    1       1
      6  7.01817322E+02  6.00000000E+03  1.92390177E-02  1.07573147E+01  6.96336953E+04    3   17    1       1
      6  6.97593994E+02  5.75000000E+03  1.52061451E-02  9.51515865E+00  7.61480234E+04    3   18    1       1
      6  6.97443176E+02  5.50000000E+03  1.27391685E-02  7.18649101E+00  8.15938750E+04    3   19    1       1
      6  7.00965576E+02  5.25000000E+03  1.10830031E-02  6.30580854E+00  8.60045156E+04    3   20    1       1
      6  7.14712708E+02  5.00000000E+03  9.85046849E-03  4.22769594E+00  9.00458438E+04    3   21    1       1
      6  7.37980835E+02  4.75000000E+03  8.87383614E-03  8.05135059E+00  9.29899688E+04    3   22    1       1
      6  7.50000000E+02  4.68094775E+03  8.63881037E-03  4.92266846E+00  9.38546953E+04    4   22    1       1
      6  7.76869690E+02  4.50000000E+03  8.10742192E-03  8.43190861E+00  9.55677578E+04    4   23    1       1
      6  9.02561646E+02  4.25000000E+03  7.44017167E-03  8.76767159E+00  9.77767422E+04    4   24    1       1
      6  1.00000000E+03  4.14915918E+03  7.15462444E-03  9.50358772E+00  9.87137969E+04    5   24    1       1
      6  1.24061047E+03  4.00000000E+03  6.59967400E-03  1.11051149E+01  1.00361750E+05    5   25    1       1
      6  1.25000000E+03  3.99394189E+03  6.57650363E-03  1.11942005E+01  1.00429109E+05    6   25    1       1
      6  1.50000000E+03  3.93068018E+03  6.01302925E-03  5.35030174E+00  1.02771891E+05    7   25    1       1
      6  1.75000000E+03  3.94837476E+03  5.48317609E-03  5.88968515E+00  1.04976656E+05    8   25    1       1
      6  2.00000000E+03  3.98158496E+03  4.93961480E-03  5.68135500E+00  1.07360438E+05    9   25    1       1
      6  2.22087305E+03  4.00000000E+03  4.48209979E-03  6.82820129E+00  1.09286859E+05    9   24    1       1
      6  2.25000000E+03  4.00299487E+03  4.41566482E-03  7.08127785E+00  1.09575438E+05   10   24    1       1
      6  2.50000000E+03  4.01819019E+03  3.87896807E-03  5.13771057E+00  1.12287234E+05   11   24    1       1
      6  2.75000000E+03  4.04734668E+03  3.41456337E-03  1.54908013E+00  1.15484773E+05   12   24    1       1
      6  3.00000000E+03  4.07168506E+03  3.02481977E-03  1.38019526E+00  1.18429250E+05   13   24    1       1
      6  3.25000000E+03  4.09379517E+03  2.69622984E-03  1.64504004E+00  1.21048055E+05   14   24    1       1
      6  3.50000000E+03  4.11895605E+03  2.40101549E-03  1.20967555E+00  1.23617727E+05   15   24    1       1
      7  5.93750000E+02  6.78125000E+03  6.66666687E-01  2.37600937E+01  0.00000000E+00    3   13    1       1
      7  6.17044739E+02  6.75000000E+03  3.78852099E-01  1.95015488E+01  1.20977363E+04    3   14    1       1
      7  6.79703308E+02  6.50000000E+03  9.09494311E-02  1.32432346E+01  4.71475312E+04    3   15    1       1
      7  6.99797485E+02  6.25000000E+03  5.34683838E-02  1.15378628E+01  6.10161758E+04    3   16    1       1
      7  7.01817322E+02  6.00000000E+03  3.84780876E-02  1.11056299E+01  6.96336953E+04    3   17    1       1
      7  6.97593994E+02  5.75000000E+03  3.04123405E-02  9.80621815E+00  7.61480234E+04    3   18    1       1
      7  6.97443176E+02  5.50000000E+03  2.54784040E-02  7.45738363E+00  8.15938750E+04    3   19    1       1
      7  7.00965576E+02  5.25000000E+03  2.21660286E-02  6.54841757E+00  8.60045156E+04    3   20    1       1
      7  7.14712708E+02  5.00000000E+03  1.97009556E-02  4.46109247E+00  9.00458438E+04    3   21    1       1
      7  7.37980835E+02  4.75000000E+03  1.77477207E-02  8.22430229E+00  9.29899688E+04    3   22    1       1
      7  7.50000000E+02  4.68094775E+03  1.72777064E-02  5.11503887E+00  9.38546953E+04    4   22    1       1
      7  7.76869690E+02  4.50000000E+03  1.62148960E-02  8.58311844E+00  9.55677578E+04    4   23    1       1
      7  9.02561646E+02  4.25000000E+03  1.48803964E-02  8.89994431E+00  9.77767422E+04    4   24    1       1
      7  1.00000000E+03  4.14915918E+03  1.43091334E-02  9.62197399E+00  9.87137969E+04    5   24    1       1
      7  1.24061047E+03  4.00000000E+03  1.31993480E-02  1.11982298E+01  1.00361750E+05    5   25    1       1
      7  1.25000000E+03  3.99394189E+03  1.31531516E-02  1.12814026E+01  1.00429109E+05    6   25    1       1
      7  1.50000000E+03  3.93068018E+03  1.20261647E-02  5.45900536E+00  1.02771891E+05    7   25    1       1
      7  1.75000000E+03  3.94837476E+03  1.09664388E-02  5.98027182E+00  1.04976656E+05    8   25    1       1
      7  2.00000000E+03  3.98158496E+03  9.87922959E-03  5.75930977E+00  1.07360438E+05    9   25    1       1
      7  2.22087305E+03  4.00000000E+03  8.96416418E-03  6.88960218E+00  1.09286859E+05    9   24    1       1
      7  2.25000000E+03  4.00299487E+03  8.83125886E-03  7.14025497E+00  1.09575438E+05   10   24    1       1
      7  2.50000000E+03  4.01819019E+03  7.75793614E-03  5.19382095E+00  1.12287234E+05   11   24    1       1
      7  2.75000000E+03  4.04734668E+03  6.82912674E-03  1.60826027E+00  1.15484773E+05   12   24    1       1
      7  3.00000000E+03  4.07168506E+03  6.04965352E-03  1.43099082E+00  1.18429250E+05   13   24    1       1
      7  3.25000000E+03  4.09379517E+03  5.39247505E-03  1.68748033E+00  1.21048055E+05   14   24    1       1
      7  3.50000000E+03  4.11895605E+03  4.80204634E-03  1.24645138E+00  1.23617727E+05   15   24    1       1
      8  5.93750000E+02  6.78125000E+03  9.99000013E-01  2.86773434E+01  0.00000000E+00    3   13    1       1
      8  6.17044739E+02  6.75000000E+03  5.67709804E-01  2.22959137E+01  1.20977363E+04    3   14    1       1
      8  6.79703308E+02  6.50000000E+03  1.36287689E-01  1.40130348E+01  4.71475312E+04    3   15    1       1
      8  6.99797485E+02  6.25000000E+03  8.01222995E-02  1.20188456E+01  6.10161758E+04    3   16    1       1
      8  7.01817322E+02  6.00000000E+03  5.76593727E-02  1.14528990E+01  6.96336953E+04    3   17    1       1
      8  6.97593994E+02  5.75000000E+03  4.55728471E-02  1.00964031E+01  7.61480234E+04    3   18    1       1
      8  6.97443176E+02  5.50000000E+03  3.81793603E-02  7.72746229E+00  8.15938750E+04    3   19    1       1
      8  7.00965576E+02  5.25000000E+03  3.32157686E-02  6.79029799E+00  8.60045156E+04    3   20    1       1
      8  7.14712708E+02  5.00000000E+03  2.95218602E-02  4.69378805E+00  9.00458438E+04    3   21    1       1
      8  7.37980835E+02  4.75000000E+03  2.65948903E-02  8.39673328E+00  9.29899688E+04    3   22    1       1
      8  7.50000000E+02  4.68094775E+03  2.58905627E-02  5.30682945E+00  9.38546953E+04    4   22    1       1
      8  7.76869690E+02  4.50000000E+03  2.42979266E-02  8.73387241E+00  9.55677578E+04    4   23    1       1
      8  9.02561646E+02  4.25000000E+03  2.22981982E-02  9.03181839E+00  9.77767422E+04    4   24    1       1
      8  1.00000000E+03  4.14915918E+03  2.14422606E-02  9.74000645E+00  9.87137969E+04    5   24    1       1
      8  1.24061047E+03  4.00000000E+03  1.97792165E-02  1.12910652E+01  1.00361750E+05    5   25    1       1
      8  1.25000000E+03  3.99394189E+03  1.97098758E-02  1.13683405E+01  1.00429109E+05    6   25    1       1
      8  1.50000000E+03  3.93068018E+03  1.80210993E-02  5.56737995E+00  1.02771891E+05    7   25    1       1
      8  1.75000000E+03  3.94837476E+03  1.64331347E-02  6.07058477E+00  1.04976656E+05    8   25    1       1
      8  2.00000000E+03  3.98158496E+03  1.48039479E-02  5.83702946E+00  1.07360438E+05    9   25    1       1
      8  2.22087305E+03  4.00000000E+03  1.34327244E-02  6.95081806E+00  1.09286859E+05    9   24    1       1
      8  2.25000000E+03  4.00299487E+03  1.32336076E-02  7.19905519E+00  1.09575438E+05   10   24    1       1
      8  2.50000000E+03  4.01819019E+03  1.16252676E-02  5.24976301E+00  1.12287234E+05   11   24    1       1
      8  2.75000000E+03  4.04734668E+03  1.02334414E-02  1.66726279E+00  1.15484773E+05   12   24    1       1
      8  3.00000000E+03  4.07168506E+03  9.06539429E-03  1.48163366E+00  1.18429250E+05   13   24    1       1
      8  3.25000000E+03  4.09379517E+03  8.08061659E-03  1.72979307E+00  1.21048055E+05   14   24    1       1
      8  3.50000000E+03  4.11895605E+03  7.19586248E-03  1.28311670E+00  1.23617727E+05   15   24    1       1
      9  6.56250000E+02  6.78125000E+03  1.00000005E-03  1.39107962E+01  0.00000000E+00    3   13    1       1
      9  6.77378906E+02  6.75000000E+03  5.68293210E-04  1.39044085E+01  1.20977363E+04    3   14    1       1
      9  7.33429443E+02  6.50000000E+03  1.36431423E-04  1.17013168E+01  4.71475312E+04    3   15    1       1
      9  7.50000000E+02  6.25020361E+03  8.02238210E-05  1.05744476E+01  6.10076836E+04    4   15    1       1
      9  7.50009521E+02  6.25000000E+03  8.01721690E-05  9.03547001E+00  6.10166523E+04    4   16    1       1
      9  7.50000000E+02  6.24449463E+03  7.94636362E-05  9.03704739E+00  6.12568281E+04    3   16    1       1
      9  7.49650024E+02  6.00000000E+03  5.76800740E-05  1.04100447E+01  6.96449531E+04    3   17    1       1
      9  7.42522278E+02  5.75000000E+03  4.55889895E-05  9.22497272E+00  7.61592812E+04    3   18    1       1
      9  7.38299866E+02  5.50000000E+03  3.81883547E-05  6.91641188E+00  8.16051328E+04    3   19    1       1
      9  7.39030823E+02  5.25000000E+03  3.32193631E-05  6.06392717E+00  8.60157734E+04    3   20    1       1
      9  7.50000000E+02  5.04881348E+03  3.01873297E-05  3.99501514E+00  8.93068594E+04    4   20    1       1
      9  7.52897766E+02  5.00000000E+03  2.94071160E-05  1.06455011E+01  8.99371953E+04    4   21    1       1
      9  7.76716187E+02  4.75000000E+03  2.62090034E-05  9.50326729E+00  9.29097109E+04    4   22    1       1
      9  8.10304138E+02  4.50000000E+03  2.38793473E-05  8.28114510E+00  9.53657734E+04    4   23    1       1
      9  9.44206482E+02  4.25000000E+03  2.18864861E-05  8.63578892E+00  9.75747578E+04    4   24    1       1
      9  1.00000000E+03  4.19274268E+03  2.14398406E-05  9.38555431E+00  9.80941172E+04    5   24    1       1
      9  1.25000000E+03  4.03326392E+03  1.97372410E-05  1.10122786E+01  9.97998828E+04    6   24    1       1
      9  1.41212170E+03  4.00000000E+03  1.87675214E-05  1.14102287E+01  1.00699695E+05    6   25    1       1
      9  1.50000000E+03  3.97843433E+03  1.82002004E-05  5.24192905E+00  1.01503461E+05    7   25    1       1
      9  1.68933899E+03  4.00000000E+03  1.70004405E-05  5.79938078E+00  1.03145422E+05    7   24    1       1
      9  1.75000000E+03  4.00979980E+03  1.65178062E-05  1.04511938E+01  1.03606852E+05    8   24    1       1
      9  2.00000000E+03  4.05986230E+03  1.47044593E-05  4.76674223E+00  1.06395672E+05    9   24    1       1
      9  2.25000000E+03  4.10159082E+03  1.29593191E-05  7.02247286E+00  1.08770719E+05   10   24    1       1
      9  2.50000000E+03  4.13158057E+03  1.13726628E-05  5.08176470E+00  1.11482516E+05   11   24    1       1
      9  2.75000000E+03  4.17084668E+03  1.00145317E-05  1.49007356E+00  1.14680055E+05   12   24    1       1
      9  3.00000000E+03  4.20304785E+03  8.86642101E-06  1.32954884E+00  1.17624531E+05   13   24    1       1
      9  3.25000000E+03  4.23459033E+03  7.90663307E-06  1.60272443E+00  1.20243336E+05   14   24    1       1
      9  3.32955542E+03  4.25000000E+03  7.62731133E-06  1.17301679E+00  1.21043773E+05   14   23    1       1
      9  3.50000000E+03  4.27721289E+03  7.16696104E-06  2.00850248E+00  1.22368953E+05   15   23    1       1
     10  6.56250000E+02  6.78125000E+03  3.33333343E-01  1.88280449E+01  0.00000000E+00    3   13    1       1
     10  6.77378906E+02  6.75000000E+03  1.89425915E-01  1.66987724E+01  1.20977363E+04    3   14    1       1
     10  7.33429443E+02  6.50000000E+03  4.54746895E-02  1.24711170E+01  4.71475312E+04    3   15    1       1
     10  7.50000000E+02  6.25020361E+03  2.67428607E-02  1.10555878E+01  6.10076836E+04    4   15    1       1
     10  7.50009521E+02  6.25000000E+03  2.67343968E-02  9.55735207E+00  6.10166523E+04    4   16    1       1
     10  7.50000000E+02  6.24449463E+03  2.65075136E-02  9.55181980E+00  6.12568281E+04    3   16    1       1
     10  7.49650024E+02  6.00000000E+03  1.92437582E-02  1.07574005E+01  6.96449531E+04    3   17    1       1
     10  7.42522278E+02  5.75000000E+03  1.52098816E-02  9.51523018E+00  7.61592812E+04    3   18    1       1
     10  7.38299866E+02  5.50000000E+03  1.27423303E-02  7.18655825E+00  8.16051328E+04    3   19    1       1
     10  7.39030823E+02  5.25000000E+03  1.10857263E-02  6.30586815E+00  8.60157734E+04    3   20    1       1
     10  7.50000000E+02  5.04881348E+03  1.00708958E-02  4.23291874E+00  8.93068594E+04    4   20    1       1
     10  7.52897766E+02  5.00000000E+03  9.81643144E-03  1.08121328E+01  8.99371953E+04    4   21    1       1
     10  7.76716187E+02  4.75000000E+03  8.74797627E-03  9.65877438E+00  9.29097109E+04    4   22    1       1
     10  8.10304138E+02  4.50000000E+03  7.98684917E-03  8.42965984E+00  9.53657734E+04    4   23    1       1
     10  9.44206482E+02  4.25000000E+03  7.32955895E-03  8.76570511E+00  9.75747578E+04    4   24    1       1
     10  1.00000000E+03  4.19274268E+03  7.17226043E-03  9.50387955E+00  9.80941172E+04    5   24    1       1
     10  1.25000000E+03  4.03326392E+03  6.59724092E-03  1.11050806E+01  9.97998828E+04    6   24    1       1
     10  1.41212170E+03  4.00000000E+03  6.26921235E-03  1.14864569E+01  1.00699695E+05    6   25    1       1
     10  1.50000000E+03  3.97843433E+03  6.07947353E-03  5.35150290E+00  1.01503461E+05    7   25    1       1
     10  1.68933899E+03  4.00000000E+03  5.67583833E-03  5.89286804E+00  1.03145422E+05    7   24    1       1
     10  1.75000000E+03  4.00979980E+03  5.52337524E-03  1.05157366E+01  1.03606852E+05    8   24    1       1
     10  2.00000000E+03  4.05986230E+03  4.91343113E-03  4.84744120E+00  1.06395672E+05    9   24    1       1
     10  2.25000000E+03  4.10159082E+03  4.34515625E-03  7.08033609E+00  1.08770719E+05   10   24    1       1
     10  2.50000000E+03  4.13158057E+03  3.81706120E-03  5.13681507E+00  1.11482516E+05   11   24    1       1
     10  2.75000000E+03  4.17084668E+03  3.36006121E-03  1.54813552E+00  1.14680055E+05   12   24    1       1
     10  3.00000000E+03  4.20304785E+03  2.97655491E-03  1.37938476E+00  1.17624531E+05   13   24    1       1
     10  3.25000000E+03  4.23459033E+03  2.65321299E-03  1.64436293E+00  1.20243336E+05   14   24    1       1
     10  3.32955542E+03  4.25000000E+03  2.55908747E-03  1.21209669E+00  1.21043773E+05   14   23    1       1
     10  3.50000000E+03  4.27721289E+03  2.40036519E-03  2.04273605E+00  1.22368953E+05   15   23    1       1
     11  6.56250000E+02  6.78125000E+03  6.66666687E-01  2.37600937E+01  0.00000000E+00    3   13    1       1
     11  6.77378906E+02  6.75000000E+03  3.78852099E-01  1.95015488E+01  1.20977363E+04    3   14    1       1
     11  7.33429443E+02  6.50000000E+03  9.09494311E-02  1.32432346E+01  4.71475312E+04    3   15    1       1
     11  7.50000000E+02  6.25020361E+03  5.34857735E-02  1.15381765E+01  6.10076836E+04    4   15    1       1
     11  7.50009521E+02  6.25000000E+03  5.34688458E-02  1.00808048E+01  6.10166523E+04    4   16    1       1