@ [ MODPATH 5.0 (TREF=   0.000000E+00 ) ]
      1  5.31250000E+02  6.78125000E+03  1.00000005E-03  1.39124079E+01  0.00000000E+00    3   13    1       1
      1  5.49176575E+02  7.00000000E+03  3.89195106E-04  1.39023857E+01  2.24025391E+04    3   12    1       1
      1  5.80906067E+02  7.25000000E+03  2.44631461E-04  1.46078167E+01  3.28807227E+04    3   11    1       1
      1  6.12206482E+02  7.50000000E+03  1.84891789E-04  1.30861368E+01  3.97547031E+04    3   10    1       1
      1  6.64926270E+02  7.75000000E+03  1.49965723E-04  1.55301418E+01  4.40879609E+04    3    9    1       1
      1  7.50000000E+02  7.97497266E+03  1.27579129E-04  1.23491831E+01  4.80786953E+04    4    9    1       1
      1  7.56370667E+02  8.00000000E+03  1.26162558E-04  1.57427082E+01  4.83102109E+04    4    8    1       1
      1  1.00000000E+03  8.21461523E+03  1.11374160E-04  1.31877098E+01  5.10634023E+04    5    8    1       1
      1  1.22791992E+03  8.25000000E+03  1.01697849E-04  1.53452463E+01  5.26714570E+04    5    7    1       1
      1  1.25000000E+03  8.25385840E+03  1.00806959E-04  1.44573088E+01  5.28437070E+04    6    7    1       1
      1  1.50000000E+03  8.26196582E+03  9.11866737E-05  1.16323624E+01  5.50189453E+04    7    7    1       1
      1  1.68953882E+03  8.25000000E+03  8.47870833E-05  1.51348829E+01  5.61199062E+04    7    8    1       1
      1  1.75000000E+03  8.24661133E+03  8.31112484E-05  1.45949039E+01  5.64411641E+04    8    8    1       1
      1  2.00000000E+03  8.13660205E+03  7.54263310E-05  1.55076332E+01  5.76333789E+04    9    8    1       1
      1  2.20365479E+03  8.00000000E+03  6.82038808E-05  1.48885250E+01  5.87576406E+04    9    9    1       1
      1  2.25000000E+03  7.96504150E+03  6.66907144E-05  8.82816696E+00  5.91856211E+04   10    9    1       1
      1  2.50000000E+03  7.76602783E+03  5.88887196E-05  5.10964346E+00  6.20737852E+04   11    9    1       1
      1  2.51952979E+03  7.75000000E+03  5.83127985E-05  4.13775539E+00  6.23043047E+04   11   10    1       1
      1  2.75000000E+03  7.58901172E+03  5.22118062E-05  3.06788588E+00  6.50143828E+04   12   10    1       1
      1  3.00000000E+03  7.53047900E+03  4.83462391E-05  2.66180468E+00  6.68665312E+04   13   10    1       1
      2  5.31250000E+02  6.78125000E+03  3.33333343E-01  1.93652382E+01  0.00000000E+00    3   13    1       1
      2  5.49176575E+02  7.00000000E+03  1.29723102E-01  1.60244598E+01  2.24025391E+04    3   12    1       1
      2  5.80906067E+02  7.25000000E+03  8.15471187E-02  1.58762531E+01  3.28807227E+04    3   11    1       1
      2  6.12206482E+02  7.50000000E+03  6.16277084E-02  1.41284962E+01  3.97547031E+04    3   10    1       1
      2  6.64926270E+02  7.75000000E+03  4.99694310E-02  1.62417107E+01  4.40879609E+04    3    9    1       1
      2  7.50000000E+02  7.97497266E+03  4.25296649E-02  1.30747099E+01  4.80786953E+04    4    9    1       1
      2  7.56370667E+02  8.00000000E+03  4.20298837E-02  1.63100147E+01  4.83102109E+04    4    8    1       1
      2  1.00000000E+03  8.21461523E+03  3.71302702E-02  1.37560644E+01  5.10634023E+04    5    8    1       1
      2  1.22791992E+03  8.25000000E+03  3.39112915E-02  1.57596312E+01  5.26714570E+04    5    7    1       1
      2  1.25000000E+03  8.25385840E+03  3.36016342E-02  1.48921385E+01  5.28437070E+04    6    7    1       1
      2  1.50000000E+03  8.26196582E+03  3.03857103E-02  1.20851192E+01  5.50189453E+04    7    7    1       1
      2  1.68953882E+03  8.25000000E+03  2.82447189E-02  1.54281836E+01  5.61199062E+04    7    8    1       1
      2  1.75000000E+03  8.24661133E+03  2.76739430E-02  1.48950367E+01  5.64411641E+04    8    8    1       1
      2  2.00000000E+03  8.13660205E+03  2.50866376E-02  1.57176142E+01  5.76333789E+04    9    8    1       1
      2  2.20365479E+03  8.00000000E+03  2.26797089E-02  1.50627346E+01  5.87576406E+04    9    9    1       1
      2  2.25000000E+03  7.96504150E+03  2.21694168E-02  9.11547279E+00  5.91856211E+04   10    9    1       1
      2  2.50000000E+03  7.76602783E+03  1.95726883E-02  5.42234182E+00  6.20737852E+04   11    9    1       1
      2  2.51952979E+03  7.75000000E+03  1.93832722E-02  4.45443678E+00  6.23043047E+04   11   10    1       1
      2  2.75000000E+03  7.58901172E+03  1.73573904E-02  3.36153126E+00  6.50143828E+04   12   10    1       1
      2  3.00000000E+03  7.53047900E+03  1.60723533E-02  2.92850423E+00  6.68665312E+04   13   10    1       1
      3  5.31250000E+02  6.78125000E+03  6.66666687E-01  2.48344784E+01  0.00000000E+00    3   13    1       1
      3  5.49176575E+02  7.00000000E+03  2.59446204E-01  1.81529198E+01  2.24025391E+04    3   12    1       1
      3  5.80906067E+02  7.25000000E+03  1.63094237E-01  1.71485062E+01  3.28807227E+04    3   11    1       1
      3  6.12206482E+02  7.50000000E+03  1.23255417E-01  1.51739922E+01  3.97547031E+04    3   10    1       1
      3  6.64926270E+02  7.75000000E+03  9.99387354E-02  1.69554195E+01  4.40879609E+04    3    9    1       1
      3  7.50000000E+02  7.97497266E+03  8.50592181E-02  1.38024178E+01  4.80786953E+04    4    9    1       1
      3  7.56370667E+02  8.00000000E+03  8.40596929E-02  1.68790283E+01  4.83102109E+04    4    8    1       1
      3  1.00000000E+03  8.21461523E+03  7.42603540E-02  1.43261261E+01  5.10634023E+04    5    8    1       1
      3  1.22791992E+03  8.25000000E+03  6.78222701E-02  1.61752586E+01  5.26714570E+04    5    7    1       1
      3  1.25000000E+03  8.25385840E+03  6.72029778E-02  1.53282728E+01  5.28437070E+04    6    7    1       1
      3  1.50000000E+03  8.26196582E+03  6.07711039E-02  1.25392342E+01  5.50189453E+04    7    7    1       1
      3  1.68953882E+03  8.25000000E+03  5.64893484E-02  1.57223663E+01  5.61199062E+04    7    8    1       1
      3  1.75000000E+03  8.24661133E+03  5.53478859E-02  1.51960735E+01  5.64411641E+04    8    8    1       1
      3  2.00000000E+03  8.13660205E+03  5.01733907E-02  1.59282293E+01  5.76333789E+04    9    8    1       1
      3  2.20365479E+03  8.00000000E+03  4.53596674E-02  1.52374716E+01  5.87576406E+04    9    9    1       1
      3  2.25000000E+03  7.96504150E+03  4.43390533E-02  9.40364838E+00  5.91856211E+04   10    9    1       1
      3  2.50000000E+03  7.76602783E+03  3.91456150E-02  5.73598766E+00  6.20737852E+04   11    9    1       1
      3  2.51952979E+03  7.75000000E+03  3.87668647E-02  4.77207899E+00  6.23043047E+04   11   10    1       1
      3  2.75000000E+03  7.58901172E+03  3.47150639E-02  3.65606737E+00  6.50143828E+04   12   10    1       1
      3  3.00000000E+03  7.53047900E+03  3.21449637E-02  3.19601274E+00  6.68665312E+04   13   10    1       1
      4  5.31250000E+02  6.78125000E+03  9.99000013E-01  3.02873077E+01  0.00000000E+00    3   13    1       1
      4  5.49176575E+02  7.00000000E+03  3.88779998E-01  2.02749920E+01  2.24025391E+04    3   12    1       1
      4  5.80906067E+02  7.25000000E+03  2.44396731E-01  1.84169426E+01  3.28807227E+04    3   11    1       1
      4  6.12206482E+02  7.50000000E+03  1.84698179E-01  1.62163506E+01  3.97547031E+04    3   10    1       1
      4  6.64926270E+02  7.75000000E+03  1.49758205E-01  1.76669884E+01  4.40879609E+04    3    9    1       1
      4  7.50000000E+02  7.97497266E+03  1.27461255E-01  1.45279436E+01  4.80786953E+04    4    9    1       1
      4  7.56370667E+02  8.00000000E+03  1.25963554E-01  1.74463367E+01  4.83102109E+04    4    8    1       1
      4  1.00000000E+03  8.21461523E+03  1.11279309E-01  1.48944817E+01  5.10634023E+04    5    8    1       1
      4  1.22791992E+03  8.25000000E+03  1.01631865E-01  1.65896435E+01  5.26714570E+04    5    7    1       1
      4  1.25000000E+03  8.25385840E+03  1.00703880E-01  1.57631035E+01  5.28437070E+04    6    7    1       1
      4  1.50000000E+03  8.26196582E+03  9.10657570E-02  1.29919930E+01  5.50189453E+04    7    7    1       1
      4  1.68953882E+03  8.25000000E+03  8.46496448E-02  1.60156708E+01  5.61199062E+04    7    8    1       1
      4  1.75000000E+03  8.24661133E+03  8.29392448E-02  1.54962120E+01  5.64411641E+04    8    8    1       1
      4  2.00000000E+03  8.13660205E+03  7.51850531E-02  1.61382141E+01  5.76333789E+04    9    8    1       1
      4  2.20365479E+03  8.00000000E+03  6.79716691E-02  1.54116850E+01  5.87576406E+04    9    9    1       1
      4  2.25000000E+03  7.96504150E+03  6.64422959E-02  9.69096088E+00  5.91856211E+04   10    9    1       1
      4  2.50000000E+03  7.76602783E+03  5.86598925E-02  6.04869366E+00  6.20737852E+04   11    9    1       1
      4  2.51952979E+03  7.75000000E+03  5.80922924E-02  5.08876801E+00  6.23043047E+04   11   10    1       1
      4  2.75000000E+03  7.58901172E+03  5.20206504E-02  3.94971967E+00  6.50143828E+04   12   10    1       1
      4  3.00000000E+03  7.53047900E+03  4.81693298E-02  3.46271825E+00  6.68665312E+04   13   10    1       1
      5  5.93750000E+02  6.78125000E+03  1.00000005E-03  1.39124079E+01  0.00000000E+00    3   13    1       1
      5  6.04707520E+02  7.00000000E+03  3.89195106E-04  1.39023857E+01  2.24025391E+04    3   12    1       1
      5  6.25701538E+02  7.25000000E+03  2.44631461E-04  1.46078167E+01  3.28807227E+04    3   11    1       1
      5  6.53606140E+02  7.50000000E+03  1.84891789E-04  1.30861368E+01  3.97547031E+04    3   10    1       1
      5  7.05654663E+02  7.75000000E+03  1.49965723E-04  1.55301418E+01  4.40879609E+04    3    9    1       1
      5  7.50000000E+02  7.86275000E+03  1.38057454E-04  1.23493624E+01  4.61341133E+04    4    9    1       1
      5  7.85943359E+02  8.00000000E+03  1.28628046E-04  1.57427416E+01  4.75262852E+04    4    8    1       1
      5  1.00000000E+03  8.18702637E+03  1.15908631E-04  1.31877794E+01  4.98466875E+04    5    8    1       1
      5  1.25000000E+03  8.22122070E+03  1.04965875E-04  1.53452864E+01  5.16159297E+04    6    8    1       1
      5  1.50000000E+03  8.22811426E+03  9.50028843E-05  1.48311186E+01  5.33144805E+04    7    8    1       1
      5  1.75000000E+03  8.21489062E+03  8.67933923E-05  1.45949440E+01  5.47202812E+04    8    8    1       1
      5  2.00000000E+03  8.08715479E+03  7.87205499E-05  1.55076609E+01  5.59124961E+04    9    8    1       1
      5  2.12753223E+03  8.00000000E+03  7.40216346E-05  1.48885698E+01  5.66019570E+04    9    9    1       1
      5  2.25000000E+03  7.90589404E+03  6.97721334E-05  8.82820702E+00  5.77131016E+04   10    9    1       1
      5  2.44113135E+03  7.75000000E+03  6.34117532E-05  5.10971594E+00  5.99192617E+04   10   10    1       1
      5  2.50000000E+03  7.68814453E+03  6.10676798E-05  6.36606741E+00  6.06794844E+04   11   10    1       1
      5  2.75000000E+03  7.52759375E+03  5.40524270E-05  3.06791711E+00  6.36714375E+04   12   10    1       1
      5  2.91261353E+03  7.50000000E+03  5.12112019E-05  2.66185236E+00  6.49778672E+04   12   11    1       1
      5  3.00000000E+03  7.48170215E+03  4.90788152E-05  3.37057567E+00  6.59475703E+04   13   11    1       1
      5  3.02528027E+03  7.50000000E+03  4.84821794E-05  3.06204867E+00  6.62217031E+04   13   10    1       1
      6  5.93750000E+02  6.78125000E+03  3.33333343E-01  1.93652382E+01  0.00000000E+00    3   13    1       1
      6  6.04707520E+02  7.00000000E+03  1.29723102E-01  1.60244598E+01  2.24025391E+04    3   12    1       1
      6  6.25701538E+02  7.25000000E+03  8.15471187E-02  1.58762531E+01  3.28807227E+04    3   11    1       1
      6  6.53606140E+02  7.50000000E+03  6.16277084E-02  1.41284962E+01  3.97547031E+04    3   10    1       1
      6  7.05654663E+02  7.75000000E+03  4.99694310E-02  1.62417107E+01  4.40879609E+04    3    9    1       1
      6  7.50000000E+02  7.86275000E+03  4.60052341E-02  1.31341791E+01  4.61341133E+04    4    9    1       1
      6  7.85943359E+02  8.00000000E+03  4.28488478E-02  1.63211021E+01  4.75262852E+04    4    8    1       1
      6  1.00000000E+03  8.18702637E+03  3.85985076E-02  1.37786064E+01  4.98466875E+04    5    8    1       1
      6  1.25000000E+03  8.22122070E+03  3.49331722E-02  1.57721558E+01  5.16159297E+04    6    8    1       1
      6  1.50000000E+03  8.22811426E+03  3.16181406E-02  1.52023039E+01  5.33144805E+04    7    8    1       1
      6  1.75000000E+03  8.21489062E+03  2.89163161E-02  1.49085512E+01  5.47202812E+04    8    8    1       1
      6  2.00000000E+03  8.08715479E+03  2.62129214E-02  1.57270699E+01  5.59124961E+04    9    8    1       1
      6  2.12753223E+03  8.00000000E+03  2.46406645E-02  1.50778427E+01  5.66019570E+04    9    9    1       1
      6  2.25000000E+03  7.90589404E+03  2.32270043E-02  9.12922001E+00  5.77131016E+04   10    9    1       1
      6  2.44113135E+03  7.75000000E+03  2.11186446E-02  5.44711494E+00  5.99192617E+04   10   10    1       1
      6  2.50000000E+03  7.68814453E+03  2.03516521E-02  6.65426207E+00  6.06794844E+04   11   10    1       1
      6  2.75000000E+03  7.52759375E+03  1.80165023E-02  3.37271547E+00  6.36714375E+04   12   10    1       1
      6  2.91261353E+03  7.50000000E+03  1.70650631E-02  2.94502664E+00  6.49778672E+04   12   11    1       1
      6  3.00000000E+03  7.48170215E+03  1.63564011E-02  3.62827468E+00  6.59475703E+04   13   11    1       1
      6  3.02528027E+03  7.50000000E+03  1.61569025E-02  3.31078577E+00  6.62217031E+04   13   10    1       1
      7  5.93750000E+02  6.78125000E+03  6.66666687E-01  2.48344784E+01  0.00000000E+00    3   13    1       1
      7  6.04707520E+02  7.00000000E+03  2.59446204E-01  1.81529198E+01  2.24025391E+04    3   12    1       1
      7  6.25701538E+02  7.25000000E+03  1.63094237E-01  1.71485062E+01  3.28807227E+04    3   11    1       1
      7  6.53606140E+02  7.50000000E+03  1.23255417E-01  1.51739922E+01  3.97547031E+04    3   10    1       1
      7  7.05654663E+02  7.75000000E+03  9.99387354E-02  1.69554195E+01  4.40879609E+04    3    9    1       1
      7  7.50000000E+02  7.86275000E+03  9.20103565E-02  1.39213562E+01  4.61341133E+04    4    9    1       1
      7  7.85943359E+02  8.00000000E+03  8.56974870E-02  1.69012012E+01  4.75262852E+04    4    8    1       1
      7  1.00000000E+03  8.18702637E+03  7.71968886E-02  1.43712111E+01  4.98466875E+04    5    8    1       1
      7  1.25000000E+03  8.22122070E+03  6.98661879E-02  1.62003098E+01  5.16159297E+04    6    8    1       1
      7  1.50000000E+03  8.22811426E+03  6.32361174E-02  1.55746059E+01  5.33144805E+04    7    8    1       1
      7  1.75000000E+03  8.21489062E+03  5.78323677E-02  1.52230997E+01  5.47202812E+04    8    8    1       1
      7  2.00000000E+03  8.08715479E+03  5.24255000E-02  1.59471369E+01  5.59124961E+04    9    8    1       1
      7  2.12753223E+03  8.00000000E+03  4.92809564E-02  1.52676830E+01  5.66019570E+04    9    9    1       1
      7  2.25000000E+03  7.90589404E+03  4.64535691E-02  9.43113422E+00  5.77131016E+04   10    9    1       1
      7  2.44113135E+03  7.75000000E+03  4.22368124E-02  5.78552246E+00  5.99192617E+04   10   10    1       1
      7  2.50000000E+03  7.68814453E+03  4.07027677E-02  6.94331646E+00  6.06794844E+04   11   10    1       1
      7  2.75000000E+03  7.52759375E+03  3.60325277E-02  3.67842293E+00  6.36714375E+04   12   10    1       1
      7  2.91261353E+03  7.50000000E+03  3.41296680E-02  3.22904563E+00  6.49778672E+04   12   11    1       1
      7  3.00000000E+03  7.48170215E+03  3.27123366E-02  3.88674188E+00  6.59475703E+04   13   11    1       1
      7  3.02528027E+03  7.50000000E+03  3.23133729E-02  3.56026483E+00  6.62217031E+04   13   10    1       1
      8  5.93750000E+02  6.78125000E+03  9.99000013E-01  3.02873077E+01  0.00000000E+00    3   13    1       1
      8  6.04707520E+02  7.00000000E+03  3.88779998E-01  2.02749920E+01  2.24025391E+04    3   12    1       1
      8  6.25701538E+02  7.25000000E+03  2.44396731E-01  1.84169426E+01  3.28807227E+04    3   11    1       1
      8  6.53606140E+02  7.50000000E+03  1.84698179E-01  1.62163506E+01  3.97547031E+04    3   10    1       1
      8  7.05654663E+02  7.75000000E+03  1.49758205E-01  1.76669884E+01  4.40879609E+04    3    9    1       1
      8  7.50000000E+02  7.86275000E+03  1.37877479E-01  1.47061720E+01  4.61341133E+04    4    9    1       1
      8  7.85943359E+02  8.00000000E+03  1.28417626E-01  1.74795609E+01  4.75262852E+04    4    8    1       1
      8  1.00000000E+03  8.18702637E+03  1.15679428E-01  1.49620371E+01  4.98466875E+04    5    8    1       1
      8  1.25000000E+03  8.22122070E+03  1.04694471E-01  1.66271801E+01  5.16159297E+04    6    8    1       1
      8  1.50000000E+03  8.22811426E+03  9.47593376E-02  1.59457922E+01  5.33144805E+04    7    8    1       1
      8  1.75000000E+03  8.21489062E+03  8.66618901E-02  1.55367069E+01  5.47202812E+04    8    8    1       1
      8  2.00000000E+03  8.08715479E+03  7.85597041E-02  1.61665459E+01  5.59124961E+04    9    8    1       1
      8  2.12753223E+03  8.00000000E+03  7.38477260E-02  1.54569569E+01  5.66019570E+04    9    9    1       1
      8  2.25000000E+03  7.90589404E+03  6.96108714E-02  9.73214817E+00  5.77131016E+04   10    9    1       1
      8  2.44113135E+03  7.75000000E+03  6.32920414E-02  6.12292147E+00  5.99192617E+04   10   10    1       1
      8  2.50000000E+03  7.68814453E+03  6.09932840E-02  7.23151016E+00  6.06794844E+04   11   10    1       1
      8  2.75000000E+03  7.52759375E+03  5.39949052E-02  3.98322010E+00  6.36714375E+04   12   10    1       1
      8  2.91261353E+03  7.50000000E+03  5.11434600E-02  3.51221895E+00  6.49778672E+04   12   11    1       1
      8  3.00000000E+03  7.48170215E+03  4.90195826E-02  4.14443970E+00  6.59475703E+04   13   11    1       1
      8  3.02528027E+03  7.50000000E+03  4.84217629E-02  3.80900145E+00  6.62217031E+04   13   10    1       1
      9  6.56250000E+02  6.78125000E+03  1.00000005E-03  1.39124079E+01  0.00000000E+00    3   13    1       1
      9  6.60238403E+02  7.00000000E+03  3.89195106E-04  1.39023857E+01  2.24025391E+04    3   12    1       1
      9  6.70496948E+02  7.25000000E+03  2.44631461E-04  1.46078167E+01  3.28807227E+04    3   11    1       1
      9  6.95005737E+02  7.50000000E+03  1.84891789E-04  1.30861368E+01  3.97547031E+04    3   10    1       1
      9  7.46382996E+02  7.75000000E+03  1.49965723E-04  1.55301418E+01  4.40879609E+04    3    9    1       1
      9  7.50000000E+02  7.75885352E+03  1.48925916E-04  1.23495483E+01  4.42521914E+04    4    9    1       1
      9  8.15091919E+02  8.00000000E+03  1.29614244E-04  1.57427549E+01  4.69572617E+04    4    8    1       1
      9  1.00000000E+03  8.16033105E+03  1.18828088E-04  1.31878242E+01  4.88865781E+04    5    8    1       1
      9  1.25000000E+03  8.18964453E+03  1.07533611E-04  1.53453178E+01  5.06558203E+04    6    8    1       1
      9  1.50000000E+03  8.19555371E+03  9.73516289E-05  1.48311462E+01  5.23543711E+04    7    8    1       1
      9  1.75000000E+03  8.18421777E+03  8.89851435E-05  1.45949678E+01  5.37601719E+04    8    8    1       1
      9  2.00000000E+03  8.03934131E+03  8.06516473E-05  1.55076771E+01  5.49523867E+04    9    8    1       1
      9  2.05659424E+03  8.00000000E+03  7.86015735E-05  1.48886051E+01  5.52526328E+04    9    9    1       1
      9  2.25000000E+03  7.84884033E+03  7.16796785E-05  8.82823181E+00  5.69795234E+04   10    9    1       1
      9  2.36905322E+03  7.75000000E+03  6.75479532E-05  5.10978222E+00  5.83522734E+04   10   10    1       1
      9  2.50000000E+03  7.60903125E+03  6.19069833E-05  6.36607933E+00  6.01556914E+04   11   10    1       1
      9  2.67660742E+03  7.50000000E+03  5.65112750E-05  3.06795883E+00  6.23859805E+04   11   11    1       1
      9  2.75000000E+03  7.45467627E+03  5.41450863E-05  3.13559794E+00  6.34167227E+04   12   11    1       1
      9  3.00000000E+03  7.40195166E+03  4.76304376E-05  3.37055278E+00  6.63505000E+04   13   11    1       1
      9  3.13967041E+03  7.50000000E+03  4.40354088E-05  3.06198001E+00  6.81048594E+04   13   10    1       1
     10  6.56250000E+02  6.78125000E+03  3.33333343E-01  1.93652382E+01  0.00000000E+00    3   13    1       1
     10  6.60238403E+02  7.00000000E+03  1.29723102E-01  1.60244598E+01  2.24025391E+04    3   12    1       1
     10  6.70496948E+02  7.25000000E+03  8.15471187E-02  1.58762531E+01  3.28807227E+04    3   11    1       1
     10  6.95005737E+02  7.50000000E+03  6.16277084E-02  1.41284962E+01  3.97547031E+04    3   10    1       1
     10  7.46382996E+02  7.75000000E+03  4.99694310E-02  1.62417107E+01  4.40879609E+04    3    9    1       1
     10  7.50000000E+02  7.75885352E+03  4.96390387E-02  1.31963558E+01  4.42521914E+04    4    9    1       1
     10  8.15091919E+02  8.00000000E+03  4.32358608E-02  1.63263416E+01  4.69572617E+04    4    8    1       1
     10  1.00000000E+03  8.16033105E+03  3.96390148E-02  1.37945814E+01  4.88865781E+04    5    8    1       1
     10  1.25000000E+03  8.18964453E+03  3.58748287E-02  1.57836971E+01  5.06558203E+04    6    8    1       1
     10  1.50000000E+03  8.19555371E+03  3.24704126E-02  1.52123394E+01  5.23543711E+04    7    8    1       1
     10  1.75000000E+03  8.18421777E+03  2.96957027E-02  1.49170294E+01  5.37601719E+04    8    8    1       1
     10  2.00000000E+03  8.03934131E+03  2.69193612E-02  1.57330008E+01  5.49523867E+04    9    8    1       1
     10  2.05659424E+03  8.00000000E+03  2.62037832E-02  1.50898857E+01  5.52526328E+04    9    9    1       1
     10  2.25000000E+03  7.84884033E+03  2.39046961E-02  9.13802910E+00  5.69795234E+04   10    9    1       1
     10  2.36905322E+03  7.75000000E+03  2.25303657E-02  5.46973705E+00  5.83522734E+04   10   10    1       1
     10  2.50000000E+03  7.60903125E+03  2.06373502E-02  6.65831995E+00  6.01556914E+04   11   10    1       1
     10  2.67660742E+03  7.50000000E+03  1.88451186E-02  3.38677597E+00  6.23859805E+04   11   11    1       1
     10  2.75000000E+03  7.45467627E+03  1.80526134E-02  3.43406534E+00  6.34167227E+04   12   11    1       1
     10  3.00000000E+03  7.40195166E+03  1.58785433E-02  3.62072325E+00  6.63505000E+04   13   11    1       1
     10  3.13967041E+03  7.50000000E+03  1.46793080E-02  3.28796959E+00  6.81048594E+04   13   10    1       1
     11  6.56250000E+02  6.78125000E+03  6.66666687E-01  2.48344784E+01  0.00000000E+00    3   13    1       1
     11  6.60238403E+02  7.00000000E+03  2.59446204E-01  1.81529198E+01  2.24025391E+04    3   12    1       1
     11  6.70496948E+02  7.25000000E+03  1.63094237E-01  1.71485062E+01  3.28807227E+04    3   11    1       1
     11  6.95005737E+02  7.50000000E+03  1.23255417E-01  1.51739922E+01  3.97547031E+04    3   10    1       1
     11  7.46382996E+02  7.75000000E+03  9.99387354E-02  1.69554195E+01  4.40879609E+04    3    9    1       1
     11  7.50000000E+02  7.75885352E+03  9.92779136E-02  1.40457087E+01  4.42521914E+04    4    9    1       1
     11  8.15091919E+02  8.00000000E+03  8.64716470E-02  1.69116821E+01  4.69572617E+04    4    8    1       1
     11  1.00000000E+03  8.16033105E+03  7.92777762E-02  1.44031591E+01  4.88865781E+04    5    8    1       1
     11  1.25000000E+03  8.18964453E+03  7.17495084E-02  1.62233925E+01  5.06558203E+04    6    8    1       1
     11  1.50000000E+03  8.19555371E+03  6.49407431E-02  1.55946779E+01  5.23543711E+04    7    8    1       1
     11  1.75000000E+03  8.18421777E+03  5.93914054E-02  1.52400589E+01  5.37601719E+04    8    8    1       1
     11  2.00000000E+03  8.03934131E+03  5.38388379E-02  1.59590025E+01  5.49523867E+04    9    8    1       1
     11  2.05659424E+03  8.00000000E+03  5.24079390E-02  1.52917747E+01  5.52526328E+04    9    9    1       1
     11  2.25000000E+03  7.84884033E+03  4.78097610E-02  9.44876289E+00  5.69795234E+04   10    9    1       1
     11  2.36905322E+03  7.75000000E+03  4.50609997E-02  5.83077860E+00  5.83522734E+04   10   10    1       1
     11  2.50000000E+03  7.60903125E+03  4.12749015E-02  6.95144272E+00  6.01556914E+04   11   10    1       1
     11  2.67660742E+03  7.50000000E+03  3.76904346E-02  3.70655537E+00  6.23859805E+04   11   11    1       1
     11  2.75000000E+03  7.45467627E+03  3.61054279E-02  3.73343396E+00  6.34167227E+04   12   11    1       1
     11  3.00000000E+03  7.40195166E+03  3.17572504E-02  3.87164903E+00  6.63505000E+04   13   11    1       1
     11  3.13967041E+03  7.50000000E+03  2.93587707E-02  3.51464152E+00  6.81048594E+04   13   10    1       1
     12  6.56250000E+02  6.78125000E+03  9.99000013E-01  3.02873077E+01  0.00000000E+00    3   13    1       1
     12  6.60238403E+02  7.00000000E+03  3.88779998E-01  2.02749920E+01  2.24025391E+04    3   12    1       1
     12  6.70496948E+02  7.25000000E+03  2.44396731E-01  1.84169426E+01  3.28807227E+04    3   11    1       1
     12  6.95005737E+02  7.50000000E+03  1.84698179E-01  1.62163506E+01  3.97547031E+04    3   10    1       1
     12  7.46382996E+02  7.75000000E+03  1.49758205E-01  1.76669884E+01  4.40879609E+04    3    9    1       1
     12  7.50000000E+02  7.75885352E+03  1.48767918E-01  1.48925142E+01  4.42521914E+04    4    9    1       1
     12  8.15091919E+02  8.00000000E+03  1.29577681E-01  1.74952660E+01  4.69572617E+04    4    8    1       1
     12  1.00000000E+03  8.16033105E+03  1.18797712E-01  1.50099125E+01  4.88865781E+04    5    8    1       1
     12  1.25000000E+03  8.18964453E+03  1.07516646E-01  1.66617699E+01  5.06558203E+04    6    8    1       1
     12  1.50000000E+03  8.19555371E+03  9.73137245E-02  1.59758701E+01  5.23543711E+04    7    8    1       1
     12  1.75000000E+03  8.18421777E+03  8.89979452E-02  1.55621185E+01  5.37601719E+04    8    8    1       1
     12  2.00000000E+03  8.03934131E+03  8.06773230E-02  1.61843243E+01  5.49523867E+04    9    8    1       1
     12  2.05659424E+03  8.00000000E+03  7.85331205E-02  1.54930553E+01  5.52526328E+04    9    9    1       1
     12  2.25000000E+03  7.84884033E+03  7.16428533E-02  9.75856113E+00  5.69795234E+04   10    9    1       1
     12  2.36905322E+03  7.75000000E+03  6.75238818E-02  6.19073439E+00  5.83522734E+04   10   10    1       1
     12  2.50000000E+03  7.60903125E+03  6.18504472E-02  7.24368477E+00  6.01556914E+04   11   10    1       1
     12  2.67660742E+03  7.50000000E+03  5.64790964E-02  4.02537346E+00  6.23859805E+04   11   11    1       1
     12  2.75000000E+03  7.45467627E+03  5.41039817E-02  4.03190279E+00  6.34167227E+04   12   11    1       1
     12  3.00000000E+03  7.40195166E+03  4.75882553E-02  4.12182093E+00  6.63505000E+04   13   11    1       1
     12  3.13967041E+03  7.50000000E+03  4.39941362E-02  3.74063253E+00  6.81048594E+04   13   10    1       1
     13  7.18750000E+02  6.78125000E+03  1.00000005E-03  1.39124079E+01  0.00000000E+00    3   13    1       1
     13  7.15769287E+02  7.00000000E+03  3.89195106E-04  1.39023857E+01  2.24025391E+04    3   12    1       1
     13  7.15292358E+02  7.25000000E+03  2.44631461E-04  1.46078167E+01  3.28807227E+04    3   11    1       1
     13  7.36405334E+02  7.50000000E+03  1.84891789E-04  1.30861368E+01  3.97547031E+04    3   10    1       1
     13  7.50000000E+02  7.56120508E+03  1.74870976E-04  1.55304976E+01  4.09095586E+04    4   10    1       1
     13  7.86336426E+02  7.75000000E+03  1.48742387E-04  1.41333218E+01  4.45634062E+04    4    9    1       1
     13  8.44171631E+02  8.00000000E+03  1.28768937E-04  1.57427435E+01  4.73944492E+04    4    8    1       1
     13  1.00000000E+03  8.13414502E+03  1.20008299E-04  1.31878424E+01  4.89633281E+04    5    8    1       1
     13  1.25000000E+03  8.15867090E+03  1.08622953E-04  1.53453312E+01  5.07325703E+04    6    8    1       1
     13  1.50000000E+03  8.16361523E+03  9.83235295E-05  1.48311577E+01  5.24311211E+04    7    8    1       1
     13  1.75000000E+03  8.15413037E+03  8.98618455E-05  1.45949774E+01  5.38369219E+04    8    8    1       1
     13  1.99197937E+03  8.00000000E+03  8.16739921E-05  1.55076857E+01  5.49837422E+04    8    9    1       1
     13  2.00000000E+03  7.99285547E+03  8.14591840E-05  1.28758097E+01  5.50357109E+04    9    9    1       1
     13  2.25000000E+03  7.79298682E+03  7.24133497E-05  8.82824135E+00  5.72402422E+04   10    9    1       1
     13  2.30091553E+03  7.75000000E+03  7.05831480E-05  5.10983086E+00  5.78267227E+04   10   10    1       1
     13  2.50000000E+03  7.53018604E+03  6.12019649E-05  6.36606932E+00  6.07619727E+04   11   10    1       1
     13  2.54727930E+03  7.50000000E+03  5.95742895E-05  3.06801081E+00  6.14269648E+04   11   11    1       1
     13  2.75000000E+03  7.36952588E+03  5.23335402E-05  3.13556790E+00  6.45386836E+04   12   11    1       1
     13  3.00000000E+03  7.32030420E+03  4.60161027E-05  3.37052727E+00  6.74724609E+04   13   11    1       1
     13  3.25000000E+03  7.47294922E+03  3.88166263E-05  3.06189942E+00  7.12713516E+04   14   11    1       1
     13  3.50000000E+03  7.41764795E+03  3.06100337E-05  3.05616331E+00  7.64707891E+04   15   11    1       1
     14  7.18750000E+02  6.78125000E+03  3.33333343E-01  1.93652382E+01  0.00000000E+00    3   13    1       1
     14  7.15769287E+02  7.00000000E+03  1.29723102E-01  1.60244598E+01  2.24025391E+04    3   12    1       1
     14  7.15292358E+02  7.25000000E+03  8.15471187E-02  1.58762531E+01  3.28807227E+04    3   11    1       1
     14  7.36405334E+02  7.50000000E+03  6.16277084E-02  1.41284962E+01  3.97547031E+04    3   10    1       1
     14  7.50000000E+02  7.56120508E+03  5.82780428E-02  1.63603821E+01  4.09095586E+04    4   10    1       1
     14  7.86336426E+02  7.75000000E+03  4.95736115E-02  1.49049530E+01  4.45634062E+04    4    9    1       1