@ [ MODPATH 5.0 (TREF=   0.000000E+00 ) ]
      1  8.10989990E+02  6.86567969E+03  1.00000005E-03  1.29307184E+01  0.00000000E+00    4   13    1       1
      1  8.62342896E+02  7.00000000E+03  8.29966302E-05  1.29144707E+01  6.38068047E+04    4   12    1       1
      1  8.79094666E+02  7.25000000E+03  3.40420920E-05  1.44965477E+01  8.45649141E+04    4   11    1       1
      1  8.94784973E+02  7.50000000E+03  2.24126197E-05  1.55173340E+01  9.35656406E+04    4   10    1       1
      1  9.11411804E+02  7.75000000E+03  1.73588051E-05  1.41312771E+01  9.94985625E+04    4    9    1       1
      1  9.34093811E+02  8.00000000E+03  1.48056497E-05  1.57412062E+01  1.02804000E+05    4    8    1       1
      1  1.00000000E+03  8.05337598E+03  1.44321884E-05  1.31862268E+01  1.03475469E+05    5    8    1       1
      1  1.25000000E+03  8.06205713E+03  1.30302360E-05  1.53441639E+01  1.05430516E+05    6    8    1       1
      1  1.50000000E+03  8.06289551E+03  1.17266773E-05  1.48301411E+01  1.07255312E+05    7    8    1       1
      1  1.75000000E+03  8.05835645E+03  1.06418893E-05  1.45941172E+01  1.08722875E+05    8    8    1       1
      1  1.83554932E+03  8.00000000E+03  1.03190750E-05  1.55070858E+01  1.09090953E+05    8    9    1       1
      1  2.00000000E+03  7.84616357E+03  9.18465503E-06  1.28750896E+01  1.10742305E+05    9    9    1       1
      1  2.10261841E+03  7.75000000E+03  8.75336082E-06  8.82741261E+00  1.11598188E+05    9   10    1       1
      1  2.17933960E+03  7.50000000E+03  7.69449798E-06  1.03920803E+01  1.13695648E+05    9   11    1       1
      1  2.25000000E+03  7.33923682E+03  6.76586706E-06  1.05510645E+01  1.15404727E+05   10   11    1       1
      1  2.29883911E+03  7.25000000E+03  6.31699049E-06  5.44869089E+00  1.16785078E+05   10   12    1       1
      1  2.48280908E+03  7.00000000E+03  5.03879801E-06  5.26107168E+00  1.21452102E+05   10   13    1       1
      1  2.50000000E+03  6.98163086E+03  4.91344053E-06  5.65226650E+00  1.21835328E+05   11   13    1       1
      1  2.75000000E+03  6.77791650E+03  3.90019022E-06  1.75326681E+00  1.27573133E+05   12   13    1       1
      1  2.81301367E+03  6.75000000E+03  3.71749366E-06  1.65216267E+00  1.28745578E+05   12   14    1       1
      1  3.00000000E+03  6.65771387E+03  3.18248749E-06  1.68965304E+00  1.32491359E+05   13   14    1       1
      1  3.25000000E+03  6.55886768E+03  2.63803418E-06  1.28464413E+00  1.37089609E+05   14   14    1       1
      1  3.37576172E+03  6.50000000E+03  2.40915483E-06  1.54383874E+00  1.39209531E+05   14   15    1       1
      1  3.50000000E+03  6.44683789E+03  2.22460017E-06  1.51983535E+00  1.41046906E+05   15   15    1       1
      1  3.64509302E+03  6.25000000E+03  1.72259524E-06  1.12142730E+00  1.46980125E+05   15   16    1       1
      1  3.65208740E+03  6.00000000E+03  1.23689028E-06  1.61041868E+00  1.54200969E+05   15   17    1       1
      1  3.64709595E+03  5.75000000E+03  8.82148242E-07  1.10921359E+00  1.61596734E+05   15   18    1       1
      1  3.63806299E+03  5.50000000E+03  6.32442152E-07  1.58140934E+00  1.68644922E+05   15   19    1       1
      1  3.60376855E+03  5.25000000E+03  4.57248944E-07  1.44650662E+00  1.75516969E+05   15   20    1       1
      1  3.50000000E+03  5.18182520E+03  4.21041875E-07  2.20000577E+00  1.77292609E+05   14   20    1       1
      2  8.10989990E+02  6.86567969E+03  3.33333343E-01  1.88191261E+01  0.00000000E+00    4   13    1       1
      2  8.62342896E+02  7.00000000E+03  2.76609138E-02  1.34031067E+01  6.38068047E+04    4   12    1       1
      2  8.79094666E+02  7.25000000E+03  1.13333482E-02  1.46782446E+01  8.45649141E+04    4   11    1       1
      2  8.94784973E+02  7.50000000E+03  7.46340258E-03  1.56281509E+01  9.35656406E+04    4   10    1       1
      2  9.11411804E+02  7.75000000E+03  5.77481510E-03  1.42233229E+01  9.94985625E+04    4    9    1       1
      2  9.34093811E+02  8.00000000E+03  4.90025897E-03  1.58091784E+01  1.02804000E+05    4    8    1       1
      2  1.00000000E+03  8.05337598E+03  4.75771073E-03  1.32608242E+01  1.03475469E+05    5    8    1       1
      2  1.25000000E+03  8.06205713E+03  4.27353848E-03  1.53977976E+01  1.05430516E+05    6    8    1       1
      2  1.50000000E+03  8.06289551E+03  3.84841021E-03  1.48763199E+01  1.07255312E+05    7    8    1       1
      2  1.75000000E+03  8.05835645E+03  3.51000647E-03  1.46326895E+01  1.08722875E+05    8    8    1       1
      2  1.83554932E+03  8.00000000E+03  3.40426294E-03  1.55353155E+01  1.09090953E+05    8    9    1       1
      2  2.00000000E+03  7.84616357E+03  3.02859116E-03  1.29045601E+01  1.10742305E+05    9    9    1       1
      2  2.10261841E+03  7.75000000E+03  2.89239222E-03  8.86448479E+00  1.11598188E+05    9   10    1       1
      2  2.17933960E+03  7.50000000E+03  2.51637562E-03  1.04181986E+01  1.13695648E+05    9   11    1       1
      2  2.25000000E+03  7.33923682E+03  2.22457713E-03  1.05723219E+01  1.15404727E+05   10   11    1       1
      2  2.29883911E+03  7.25000000E+03  2.08212622E-03  5.47861910E+00  1.16785078E+05   10   12    1       1
      2  2.48280908E+03  7.00000000E+03  1.65887305E-03  5.28454781E+00  1.21452102E+05   10   13    1       1
      2  2.50000000E+03  6.98163086E+03  1.62663171E-03  5.67414284E+00  1.21835328E+05   11   13    1       1
      2  2.75000000E+03  6.77791650E+03  1.29021774E-03  1.77528393E+00  1.27573133E+05   12   13    1       1
      2  2.81301367E+03  6.75000000E+03  1.22969178E-03  1.67284155E+00  1.28745578E+05   12   14    1       1
      2  3.00000000E+03  6.65771387E+03  1.05278112E-03  1.70714855E+00  1.32491359E+05   13   14    1       1
      2  3.25000000E+03  6.55886768E+03  8.70529911E-04  1.29915512E+00  1.37089609E+05   14   14    1       1
      2  3.37576172E+03  6.50000000E+03  7.94717169E-04  1.55658031E+00  1.39209531E+05   14   15    1       1
      2  3.50000000E+03  6.44683789E+03  7.33766006E-04  1.53147805E+00  1.41046906E+05   15   15    1       1
      2  3.64509302E+03  6.25000000E+03  5.66463044E-04  1.13037705E+00  1.46980125E+05   15   16    1       1
      2  3.65208740E+03  6.00000000E+03  4.07299318E-04  1.61656296E+00  1.54200969E+05   15   17    1       1
      2  3.64709595E+03  5.75000000E+03  2.92277371E-04  1.11370265E+00  1.61596734E+05   15   18    1       1
      2  3.63806299E+03  5.50000000E+03  2.09832957E-04  1.58448505E+00  1.68644922E+05   15   19    1       1
      2  3.60376855E+03  5.25000000E+03  1.51561704E-04  1.44871271E+00  1.75516969E+05   15   20    1       1
      2  3.50000000E+03  5.18182520E+03  1.38470146E-04  2.20188189E+00  1.77292609E+05   14   20    1       1
      3  8.10989990E+02  6.86567969E+03  6.66666687E-01  2.47252541E+01  0.00000000E+00    4   13    1       1
      3  8.62342896E+02  7.00000000E+03  5.53217195E-02  1.38932114E+01  6.38068047E+04    4   12    1       1
      3  8.79094666E+02  7.25000000E+03  2.26666965E-02  1.48604889E+01  8.45649141E+04    4   11    1       1
      3  8.94784973E+02  7.50000000E+03  1.49268052E-02  1.57393017E+01  9.35656406E+04    4   10    1       1
      3  9.11411804E+02  7.75000000E+03  1.15495706E-02  1.43156452E+01  9.94985625E+04    4    9    1       1
      3  9.34093811E+02  8.00000000E+03  9.80051793E-03  1.58773565E+01  1.02804000E+05    4    8    1       1
      3  1.00000000E+03  8.05337598E+03  9.51554254E-03  1.33356504E+01  1.03475469E+05    5    8    1       1
      3  1.25000000E+03  8.06205713E+03  8.54700152E-03  1.54515944E+01  1.05430516E+05    6    8    1       1
      3  1.50000000E+03  8.06289551E+03  7.69666210E-03  1.49226379E+01  1.07255312E+05    7    8    1       1
      3  1.75000000E+03  8.05835645E+03  7.01992679E-03  1.46713781E+01  1.08722875E+05    8    8    1       1
      3  1.83554932E+03  8.00000000E+03  6.80852588E-03  1.55636311E+01  1.09090953E+05    8    9    1       1
      3  2.00000000E+03  7.84616357E+03  6.05718233E-03  1.29341202E+01  1.10742305E+05    9    9    1       1
      3  2.10261841E+03  7.75000000E+03  5.78478444E-03  8.90166950E+00  1.11598188E+05    9   10    1       1
      3  2.17933960E+03  7.50000000E+03  5.03284251E-03  1.04443979E+01  1.13695648E+05    9   11    1       1
      3  2.25000000E+03  7.33923682E+03  4.44925390E-03  1.05936451E+01  1.15404727E+05   10   11    1       1
      3  2.29883911E+03  7.25000000E+03  4.16435162E-03  5.50863981E+00  1.16785078E+05   10   12    1       1
      3  2.48280908E+03  7.00000000E+03  3.31781339E-03  5.30809641E+00  1.21452102E+05   10   13    1       1
      3  2.50000000E+03  6.98163086E+03  3.25329858E-03  5.69608593E+00  1.21835328E+05   11   13    1       1
      3  2.75000000E+03  6.77791650E+03  2.58044945E-03  1.79736805E+00  1.27573133E+05   12   13    1       1
      3  2.81301367E+03  6.75000000E+03  2.45940476E-03  1.69358349E+00  1.28745578E+05   12   14    1       1
      3  3.00000000E+03  6.65771387E+03  2.10558390E-03  1.72469747E+00  1.32491359E+05   13   14    1       1
      3  3.25000000E+03  6.55886768E+03  1.74106692E-03  1.31371033E+00  1.37089609E+05   14   14    1       1
      3  3.37576172E+03  6.50000000E+03  1.58944179E-03  1.56936073E+00  1.39209531E+05   14   15    1       1
      3  3.50000000E+03  6.44683789E+03  1.46754703E-03  1.54315639E+00  1.41046906E+05   15   15    1       1
      3  3.64509302E+03  6.25000000E+03  1.13293354E-03  1.13935423E+00  1.46980125E+05   15   16    1       1
      3  3.65208740E+03  6.00000000E+03  8.14622268E-04  1.62272632E+00  1.54200969E+05   15   17    1       1
      3  3.64709595E+03  5.75000000E+03  5.84577967E-04  1.11820567E+00  1.61596734E+05   15   18    1       1
      3  3.63806299E+03  5.50000000E+03  4.19698335E-04  1.58757055E+00  1.68644922E+05   15   19    1       1
      3  3.60376855E+03  5.25000000E+03  3.03147885E-04  1.45092583E+00  1.75516969E+05   15   20    1       1
      3  3.50000000E+03  5.18182520E+03  2.76975392E-04  2.20376420E+00  1.77292609E+05   14   20    1       1
      4  8.10989990E+02  6.86567969E+03  9.99000013E-01  3.06136627E+01  0.00000000E+00    4   13    1       1
      4  8.62342896E+02  7.00000000E+03  8.28996375E-02  1.43818474E+01  6.38068047E+04    4   12    1       1
      4  8.79094666E+02  7.25000000E+03  3.39660607E-02  1.50421867E+01  8.45649141E+04    4   11    1       1
      4  8.94784973E+02  7.50000000E+03  2.23678593E-02  1.58501196E+01  9.35656406E+04    4   10    1       1
      4  9.11411804E+02  7.75000000E+03  1.73071455E-02  1.44076929E+01  9.94985625E+04    4    9    1       1
      4  9.34093811E+02  8.00000000E+03  1.46861766E-02  1.59453316E+01  1.02804000E+05    4    8    1       1
      4  1.00000000E+03  8.05337598E+03  1.42590636E-02  1.34102516E+01  1.03475469E+05    5    8    1       1
      4  1.25000000E+03  8.06205713E+03  1.28077371E-02  1.55052309E+01  1.05430516E+05    6    8    1       1
      4  1.50000000E+03  8.06289551E+03  1.15335044E-02  1.49688187E+01  1.07255312E+05    7    8    1       1
      4  1.75000000E+03  8.05835645E+03  1.05195511E-02  1.47099533E+01  1.08722875E+05    8    8    1       1
      4  1.83554932E+03  8.00000000E+03  1.02025839E-02  1.55918617E+01  1.09090953E+05    8    9    1       1
      4  2.00000000E+03  7.84616357E+03  9.07658879E-03  1.29635906E+01  1.10742305E+05    9    9    1       1
      4  2.10261841E+03  7.75000000E+03  8.66834912E-03  8.93874073E+00  1.11598188E+05    9   10    1       1
      4  2.17933960E+03  7.50000000E+03  7.54161552E-03  1.04705172E+01  1.13695648E+05    9   11    1       1
      4  2.25000000E+03  7.33923682E+03  6.66706543E-03  1.06149025E+01  1.15404727E+05   10   11    1       1
      4  2.29883911E+03  7.25000000E+03  6.24012807E-03  5.53856754E+00  1.16785078E+05   10   12    1       1
      4  2.48280908E+03  7.00000000E+03  4.97161411E-03  5.33157206E+00  1.21452102E+05   10   13    1       1
      4  2.50000000E+03  6.98163086E+03  4.87494608E-03  5.71796131E+00  1.21835328E+05   11   13    1       1
      4  2.75000000E+03  6.77791650E+03  3.86670441E-03  1.81938410E+00  1.27573133E+05   12   13    1       1
      4  2.81301367E+03  6.75000000E+03  3.68531537E-03  1.71426129E+00  1.28745578E+05   12   14    1       1
      4  3.00000000E+03  6.65771387E+03  3.15513951E-03  1.74219227E+00  1.32491359E+05   13   14    1       1
      4  3.25000000E+03  6.55886768E+03  2.60893023E-03  1.32822084E+00  1.37089609E+05   14   14    1       1
      4  3.37576172E+03  6.50000000E+03  2.38172011E-03  1.58210182E+00  1.39209531E+05   14   15    1       1
      4  3.50000000E+03  6.44683789E+03  2.19904352E-03  1.55479836E+00  1.41046906E+05   15   15    1       1
      4  3.64509302E+03  6.25000000E+03  1.69765146E-03  1.14830363E+00  1.46980125E+05   15   16    1       1
      4  3.65208740E+03  6.00000000E+03  1.22066890E-03  1.62887037E+00  1.54200969E+05   15   17    1       1
      4  3.64709595E+03  5.75000000E+03  8.75965459E-04  1.12269461E+00  1.61596734E+05   15   18    1       1
      4  3.63806299E+03  5.50000000E+03  6.28898852E-04  1.59064627E+00  1.68644922E+05   15   19    1       1
      4  3.60376855E+03  5.25000000E+03  4.54235997E-04  1.45313168E+00  1.75516969E+05   15   20    1       1
      4  3.50000000E+03  5.18182520E+03  4.15006944E-04  2.20564008E+00  1.77292609E+05   14   20    1       1
      5  7.96742554E+02  6.93730664E+03  1.00000005E-03  1.29307184E+01  0.00000000E+00    4   13    1       1
      5  8.09583496E+02  7.00000000E+03  5.99061255E-04  1.29236145E+01  1.31342656E+04    4   12    1       1
      5  8.32755615E+02  7.25000000E+03  2.45470757E-04  1.44999475E+01  3.38923750E+04    4   11    1       1
      5  8.54459473E+02  7.50000000E+03  1.61627002E-04  1.55194073E+01  4.28930977E+04    4   10    1       1
      5  8.77458862E+02  7.75000000E+03  1.25031118E-04  1.41329985E+01  4.88260156E+04    4    9    1       1
      5  9.08834106E+02  8.00000000E+03  1.06107160E-04  1.57424765E+01  5.21314531E+04    4    8    1       1
      5  1.00000000E+03  8.07427197E+03  1.01752994E-04  1.31876001E+01  5.30850820E+04    5    8    1       1
      5  1.25000000E+03  8.08635156E+03  9.13631666E-05  1.53451500E+01  5.50401250E+04    6    8    1       1
      5  1.50000000E+03  8.08751807E+03  8.22452057E-05  1.48309898E+01  5.68649258E+04    7    8    1       1
      5  1.75000000E+03  8.08120215E+03  7.49258252E-05  1.45948257E+01  5.83324844E+04    8    8    1       1
      5  1.86979138E+03  8.00000000E+03  7.17748990E-05  1.55075970E+01  5.88597266E+04    8    9    1       1
      5  2.00000000E+03  7.87979932E+03  6.62467646E-05  1.28756466E+01  5.99926523E+04    9    9    1       1
      5  2.13967529E+03  7.75000000E+03  6.21636937E-05  8.82809925E+00  6.11696641E+04    9   10    1       1
      5  2.24410132E+03  7.50000000E+03  5.41362861E-05  1.03925638E+01  6.32671250E+04    9   11    1       1
      5  2.25000000E+03  7.48729053E+03  5.36294465E-05  1.05515137E+01  6.33899766E+04   10   11    1       1
      5  2.38676953E+03  7.25000000E+03  4.56080088E-05  5.44925737E+00  6.67634609E+04   10   12    1       1
      5  2.50000000E+03  7.10875586E+03  4.04783459E-05  5.26157475E+00  6.92263281E+04   11   12    1       1
      5  2.63055371E+03  7.00000000E+03  3.63170402E-05  2.54120255E+00  7.18351641E+04   11   13    1       1
      5  2.75000000E+03  6.90743018E+03  3.28591050E-05  1.75376248E+00  7.43141953E+04   12   13    1       1
      5  3.00000000E+03  6.80749121E+03  2.73864789E-05  1.65256190E+00  7.87654688E+04   13   13    1       1
      5  3.21662939E+03  6.75000000E+03  2.33093251E-05  1.49358749E+00  8.26466875E+04   13   14    1       1
      5  3.25000000E+03  6.73956055E+03  2.27370037E-05  1.28498018E+00  8.32472500E+04   14   14    1       1
      5  3.50000000E+03  6.63906934E+03  1.90508545E-05  1.54410636E+00  8.73692344E+04   15   14    1       1
      5  3.63255078E+03  6.50000000E+03  1.58403982E-05  1.84044313E+00  9.14703906E+04   15   15    1       1
      5  3.65514526E+03  6.25000000E+03  1.14037302E-05  1.12158072E+00  9.90129453E+04   15   16    1       1
      5  3.65238916E+03  6.00000000E+03  8.20129208E-06  1.61052406E+00  1.06233797E+05   15   17    1       1
      5  3.64710376E+03  5.75000000E+03  5.88098828E-06  1.10929060E+00  1.13629570E+05   15   18    1       1
      5  3.63806323E+03  5.50000000E+03  4.22438916E-06  1.58146214E+00  1.20677758E+05   15   19    1       1
      5  3.60376880E+03  5.25000000E+03  3.05376989E-06  1.44654453E+00  1.27549805E+05   15   20    1       1
      5  3.50000000E+03  5.18182471E+03  2.78940252E-06  2.20003796E+00  1.29325453E+05   14   20    1       1
      6  7.96742554E+02  6.93730664E+03  3.33333343E-01  1.88191261E+01  0.00000000E+00    4   13    1       1
      6  8.09583496E+02  7.00000000E+03  1.99690968E-01  1.64512005E+01  1.31342656E+04    4   12    1       1
      6  8.32755615E+02  7.25000000E+03  8.18184540E-02  1.58116703E+01  3.38923750E+04    4   11    1       1
      6  8.54459473E+02  7.50000000E+03  5.38801961E-02  1.63194256E+01  4.28930977E+04    4   10    1       1
      6  8.77458862E+02  7.75000000E+03  4.16897647E-02  1.47975035E+01  4.88260156E+04    4    9    1       1
      6  9.08834106E+02  8.00000000E+03  3.53763886E-02  1.62331982E+01  5.21314531E+04    4    8    1       1
      6  1.00000000E+03  8.07427197E+03  3.39243151E-02  1.37195263E+01  5.30850820E+04    5    8    1       1
      6  1.25000000E+03  8.08635156E+03  3.04712821E-02  1.57275896E+01  5.50401250E+04    6    8    1       1
      6  1.50000000E+03  8.08751807E+03  2.74397116E-02  1.51602678E+01  5.68649258E+04    7    8    1       1
      6  1.75000000E+03  8.08120215E+03  2.50272155E-02  1.48698664E+01  5.83324844E+04    8    8    1       1
      6  1.86979138E+03  8.00000000E+03  2.39543561E-02  1.57062445E+01  5.88597266E+04    8    9    1       1
      6  2.00000000E+03  7.87979932E+03  2.21076589E-02  1.30907784E+01  5.99926523E+04    9    9    1       1
      6  2.13967529E+03  7.75000000E+03  2.07519922E-02  9.09408855E+00  6.11696641E+04    9   10    1       1
      6  2.24410132E+03  7.50000000E+03  1.80544052E-02  1.05799675E+01  6.32671250E+04    9   11    1       1
      6  2.25000000E+03  7.48729053E+03  1.78951211E-02  1.07225218E+01  6.33899766E+04   10   11    1       1
      6  2.38676953E+03  7.25000000E+03  1.52228884E-02  5.66807747E+00  6.67634609E+04   10   12    1       1
      6  2.50000000E+03  7.10875586E+03  1.35025010E-02  5.45266771E+00  6.92263281E+04   11   12    1       1
      6  2.63055371E+03  7.00000000E+03  1.21117830E-02  2.74152923E+00  7.18351641E+04   11   13    1       1
      6  2.75000000E+03  6.90743018E+03  1.09580029E-02  1.94076157E+00  7.43141953E+04   12   13    1       1
      6  3.00000000E+03  6.80749121E+03  9.13088489E-03  1.80611336E+00  7.87654688E+04   13   13    1       1
      6  3.21662939E+03  6.75000000E+03  7.77031481E-03  1.62239206E+00  8.26466875E+04   13   14    1       1
      6  3.25000000E+03  6.73956055E+03  7.57977832E-03  1.41133249E+00  8.32472500E+04   14   14    1       1
      6  3.50000000E+03  6.63906934E+03  6.34912355E-03  1.64590394E+00  8.73692344E+04   15   14    1       1
      6  3.63255078E+03  6.50000000E+03  5.27865766E-03  1.92123961E+00  9.14703906E+04   15   15    1       1
      6  3.65514526E+03  6.25000000E+03  3.79884895E-03  1.18160248E+00  9.90129453E+04   15   16    1       1
      6  3.65238916E+03  6.00000000E+03  2.73149507E-03  1.65173125E+00  1.06233797E+05   15   17    1       1
      6  3.64710376E+03  5.75000000E+03  1.96014880E-03  1.13939691E+00  1.13629570E+05   15   18    1       1
      6  3.63806323E+03  5.50000000E+03  1.40728918E-03  1.60209036E+00  1.20677758E+05   15   19    1       1
      6  3.60376880E+03  5.25000000E+03  1.01645628E-03  1.46133995E+00  1.27549805E+05   15   20    1       1
      6  3.50000000E+03  5.18182471E+03  9.28695605E-04  2.21262121E+00  1.29325453E+05   14   20    1       1
      7  7.96742554E+02  6.93730664E+03  6.66666687E-01  2.47252541E+01  0.00000000E+00    4   13    1       1
      7  8.09583496E+02  7.00000000E+03  3.99381936E-01  1.99894009E+01  1.31342656E+04    4   12    1       1
      7  8.32755615E+02  7.25000000E+03  1.63636789E-01  1.71273384E+01  3.38923750E+04    4   11    1       1
      7  8.54459473E+02  7.50000000E+03  1.07760392E-01  1.71218510E+01  4.28930977E+04    4   10    1       1
      7  8.77458862E+02  7.75000000E+03  8.33795890E-02  1.54640083E+01  4.88260156E+04    4    9    1       1
      7  9.08834106E+02  8.00000000E+03  7.07527027E-02  1.67253952E+01  5.21314531E+04    4    8    1       1
      7  1.00000000E+03  8.07427197E+03  6.78486302E-02  1.42530527E+01  5.30850820E+04    5    8    1       1
      7  1.25000000E+03  8.08635156E+03  6.09427169E-02  1.61111813E+01  5.50401250E+04    6    8    1       1
      7  1.50000000E+03  8.08751807E+03  5.48795797E-02  1.54905376E+01  5.68649258E+04    7    8    1       1
      7  1.75000000E+03  8.08120215E+03  5.00546023E-02  1.51457348E+01  5.83324844E+04    8    8    1       1
      7  1.86979138E+03  8.00000000E+03  4.79088277E-02  1.59054899E+01  5.88597266E+04    8    9    1       1
      7  2.00000000E+03  7.87979932E+03  4.42152210E-02  1.33065557E+01  5.99926523E+04    9    9    1       1
      7  2.13967529E+03  7.75000000E+03  4.15039100E-02  9.36087608E+00  6.11696641E+04    9   10    1       1
      7  2.24410132E+03  7.50000000E+03  3.61088105E-02  1.07679348E+01  6.32671250E+04    9   11    1       1
      7  2.25000000E+03  7.48729053E+03  3.57902423E-02  1.08940439E+01  6.33899766E+04   10   11    1       1
      7  2.38676953E+03  7.25000000E+03  3.04457098E-02  5.88755417E+00  6.67634609E+04   10   12    1       1
      7  2.50000000E+03  7.10875586E+03  2.70049684E-02  5.64433479E+00  6.92263281E+04   11   12    1       1
      7  2.63055371E+03  7.00000000E+03  2.42235363E-02  2.94245791E+00  7.18351641E+04   11   13    1       1
      7  2.75000000E+03  6.90743018E+03  2.19159629E-02  2.12832236E+00  7.43141953E+04   12   13    1       1
      7  3.00000000E+03  6.80749121E+03  1.82617344E-02  1.96012616E+00  7.87654688E+04   13   13    1       1
      7  3.21662939E+03  6.75000000E+03  1.55405942E-02  1.75158358E+00  8.26466875E+04   13   14    1       1
      7  3.25000000E+03  6.73956055E+03  1.51595064E-02  1.53806412E+00  8.32472500E+04   14   14    1       1
      7  3.50000000E+03  6.63906934E+03  1.26982257E-02  1.74800754E+00  8.73692344E+04   15   14    1       1
      7  3.63255078E+03  6.50000000E+03  1.05572995E-02  2.00227904E+00  9.14703906E+04   15   15    1       1
      7  3.65514526E+03  6.25000000E+03  7.59769790E-03  1.24180496E+00  9.90129453E+04   15   16    1       1
      7  3.65238916E+03  6.00000000E+03  5.46300551E-03  1.69306278E+00  1.06233797E+05   15   17    1       1
      7  3.64710376E+03  5.75000000E+03  3.92030552E-03  1.16959393E+00  1.13629570E+05   15   18    1       1
      7  3.63806323E+03  5.50000000E+03  2.81457836E-03  1.62278068E+00  1.20677758E+05   15   19    1       1
      7  3.60376880E+03  5.25000000E+03  2.03290442E-03  1.47617984E+00  1.27549805E+05   15   20    1       1
      7  3.50000000E+03  5.18182471E+03  1.85737363E-03  2.22524214E+00  1.29325453E+05   14   20    1       1
      8  7.96742554E+02  6.93730664E+03  9.99000013E-01  3.06136627E+01  0.00000000E+00    4   13    1       1
      8  8.09583496E+02  7.00000000E+03  5.98473847E-01  2.35169868E+01  1.31342656E+04    4   12    1       1
      8  8.32755615E+02  7.25000000E+03  2.45209709E-01  1.84390602E+01  3.38923750E+04    4   11    1       1
      8  8.54459473E+02  7.50000000E+03  1.61478832E-01  1.79218674E+01  4.28930977E+04    4   10    1       1
      8  8.77458862E+02  7.75000000E+03  1.24944203E-01  1.61285114E+01  4.88260156E+04    4    9    1       1
      8  9.08834106E+02  8.00000000E+03  1.06022783E-01  1.72161140E+01  5.21314531E+04    4    8    1       1
      8  1.00000000E+03  8.07427197E+03  1.01671010E-01  1.47849760E+01  5.30850820E+04    5    8    1       1
      8  1.25000000E+03  8.08635156E+03  9.13224071E-02  1.64936180E+01  5.50401250E+04    6    8    1       1
      8  1.50000000E+03  8.08751807E+03  8.22368115E-02  1.58198128E+01  5.68649258E+04    7    8    1       1
      8  1.75000000E+03  8.08120215E+03  7.50066340E-02  1.54207726E+01  5.83324844E+04    8    8    1       1
      8  1.86979138E+03  8.00000000E+03  7.17914104E-02  1.61041374E+01  5.88597266E+04    8    9    1       1
      8  2.00000000E+03  7.87979932E+03  6.62565380E-02  1.35216866E+01  5.99926523E+04    9    9    1       1
      8  2.13967529E+03  7.75000000E+03  6.21935911E-02  9.62686348E+00  6.11696641E+04    9   10    1       1
      8  2.24410132E+03  7.50000000E+03  5.41090816E-02  1.09553385E+01  6.32671250E+04    9   11    1       1
      8  2.25000000E+03  7.48729053E+03  5.36318310E-02  1.10650530E+01  6.33899766E+04   10   11    1       1
      8  2.38676953E+03  7.25000000E+03  4.56230566E-02  6.10637522E+00  6.67634609E+04   10   12    1       1
      8  2.50000000E+03  7.10875586E+03  4.04670238E-02  5.83542824E+00  6.92263281E+04   11   12    1       1
      8  2.63055371E+03  7.00000000E+03  3.62990312E-02  3.14278507E+00  7.18351641E+04   11   13    1       1
      8  2.75000000E+03  6.90743018E+03  3.28411497E-02  2.31532216E+00  7.43141953E+04   12   13    1       1
      8  3.00000000E+03  6.80749121E+03  2.73652822E-02  2.11367846E+00  7.87654688E+04   13   13    1       1
      8  3.21662939E+03  6.75000000E+03  2.32876427E-02  1.88038886E+00  8.26466875E+04   13   14    1       1
      8  3.25000000E+03  6.73956055E+03  2.27165911E-02  1.66441715E+00  8.32472500E+04   14   14    1       1
      8  3.50000000E+03  6.63906934E+03  1.90283433E-02  1.84980583E+00  8.73692344E+04   15   14    1       1
      8  3.63255078E+03  6.50000000E+03  1.58201624E-02  2.08307624E+00  9.14703906E+04   15   15    1       1
      8  3.65514526E+03  6.25000000E+03  1.13851810E-02  1.30182731E+00  9.90129453E+04   15   16    1       1
      8  3.65238916E+03  6.00000000E+03  8.18631519E-03  1.73427022E+00  1.06233797E+05   15   17    1       1
      8  3.64710376E+03  5.75000000E+03  5.87458070E-03  1.19970036E+00  1.13629570E+05   15   18    1       1
      8  3.63806323E+03  5.50000000E+03  4.21764329E-03  1.64340889E+00  1.20677758E+05   15   19    1       1
      8  3.60376880E+03  5.25000000E+03  3.04631493E-03  1.49097538E+00  1.27549805E+05   15   20    1       1
      8  3.50000000E+03  5.18182471E+03  2.78326217E-03  2.23782516E+00  1.29325453E+05   14   20    1       1
      9  7.56169128E+02  6.99802930E+03  1.00000005E-03  1.29307184E+01  0.00000000E+00    4   13    1       1
      9  7.56551514E+02  7.00000000E+03  9.87724517E-04  1.29305010E+01  3.15877533E+02    4   12    1       1
      9  7.86177246E+02  7.25000000E+03  4.04709484E-04  1.45025082E+01  2.10739863E+04    4   11    1       1
      9  8.13925781E+02  7.50000000E+03  2.66518065E-04  1.55209694E+01  3.00747090E+04    4   10    1       1
      9  8.43330627E+02  7.75000000E+03  2.06217825E-04  1.41342964E+01  3.60076289E+04    4    9    1       1
      9  8.83444031E+02  8.00000000E+03  1.74926012E-04  1.57434340E+01  3.93130664E+04    4    8    1       1
      9  1.00000000E+03  8.09554688E+03  1.65485049E-04  1.31886024E+01  4.05665859E+04    5    8    1       1
      9  1.25000000E+03  8.11108691E+03  1.48711362E-04  1.53458719E+01  4.25216289E+04    6    8    1       1
      9  1.50000000E+03  8.11258740E+03  1.33826747E-04  1.48316107E+01  4.43464297E+04    7    8    1       1
      9  1.75000000E+03  8.10446191E+03  1.22078913E-04  1.45953455E+01  4.58139883E+04    8    8    1       1
      9  1.90513770E+03  8.00000000E+03  1.15229668E-04  1.55079584E+01  4.65136641E+04    8    9    1       1
      9  2.00000000E+03  7.91342480E+03  1.09434186E-04  1.28760681E+01  4.72484297E+04    9    9    1       1
      9  2.17737891E+03  7.75000000E+03  1.00886187E-04  8.82859707E+00  4.87591797E+04    9   10    1       1
      9  2.25000000E+03  7.58415723E+03  9.26087741E-05  1.03929644E+01  5.00485195E+04   10   10    1       1
      9  2.30080054E+03  7.50000000E+03  8.82628083E-05  6.36644030E+00  5.10242852E+04   10   11    1       1
      9  2.47507617E+03  7.25000000E+03  7.45140278E-05  5.44967413E+00  5.45546016E+04   10   12    1       1
      9  2.50000000E+03  7.22030859E+03  7.27602455E-05  5.26203299E+00  5.50409141E+04   11   12    1       1
      9  2.75000000E+03  7.01777051E+03  6.00589265E-05  2.54159641E+00  5.96419297E+04   12   12    1       1
      9  2.80651489E+03  7.00000000E+03  5.79494226E-05  4.19353867E+00  6.03883008E+04   12   13    1       1
      9  3.00000000E+03  6.92895117E+03  5.04193886E-05  1.65295041E+00  6.37863633E+04   13   13    1       1
      9  3.25000000E+03  6.91520850E+03  4.17502924E-05  1.49389410E+00  6.83248750E+04   14   13    1       1
      9  3.50000000E+03  6.82490332E+03  3.41004779E-05  1.73434722E+00  7.30242422E+04   15   13    1       1
      9  3.59172803E+03  6.75000000E+03  3.08103081E-05  1.64668572E+00  7.53386406E+04   15   14    1       1
      9  3.65984351E+03  6.50000000E+03  2.20833790E-05  1.84053898E+00  8.27387109E+04   15   15    1       1
      9  3.65606616E+03  6.25000000E+03  1.58945131E-05  1.12165189E+00  9.02812656E+04   15   16    1       1
      9  3.65241699E+03  6.00000000E+03  1.14235090E-05  1.61057281E+00  9.75021172E+04   15   17    1       1
      9  3.64710449E+03  5.75000000E+03  8.20243076E-06  1.10932636E+00  1.04897891E+05   15   18    1       1