@ [ MODPATH 5.0 (TREF=   0.000000E+00 ) ]
      1  5.31250000E+02  6.78125000E+03  1.00000005E-03  1.39111938E+01  0.00000000E+00    3   13    1       1
      1  5.65144836E+02  7.00000000E+03  3.76411539E-04  1.39017191E+01  2.14784824E+04    3   12    1       1
      1  6.00464355E+02  7.25000000E+03  2.26620818E-04  1.46072617E+01  3.20465078E+04    3   11    1       1
      1  6.36568909E+02  7.50000000E+03  1.64916244E-04  1.30855970E+01  3.92918906E+04    3   10    1       1
      1  6.82569824E+02  7.75000000E+03  1.30742061E-04  1.55297060E+01  4.36836250E+04    3    9    1       1
      1  7.50000000E+02  7.92823730E+03  1.14125687E-04  1.23488150E+01  4.68229219E+04    4    9    1       1
      1  7.66623840E+02  8.00000000E+03  1.10237917E-04  1.57423639E+01  4.74424883E+04    4    8    1       1
      1  1.00000000E+03  8.20468164E+03  9.82081910E-05  1.31874037E+01  4.98354688E+04    5    8    1       1
      1  1.25000000E+03  8.23974707E+03  8.90637602E-05  1.53450098E+01  5.14460352E+04    6    8    1       1
      1  1.50000000E+03  8.24246289E+03  8.08589029E-05  1.48308897E+01  5.29890195E+04    7    8    1       1
      1  1.75000000E+03  8.22253418E+03  7.42150514E-05  1.45947618E+01  5.42543867E+04    8    8    1       1
      1  2.00000000E+03  8.08393262E+03  6.76753407E-05  1.55075407E+01  5.53211133E+04    9    8    1       1
      1  2.11047876E+03  8.00000000E+03  6.44101165E-05  1.48884811E+01  5.58626875E+04    9    9    1       1
      1  2.25000000E+03  7.87948926E+03  6.04932902E-05  8.82807541E+00  5.70273828E+04   10    9    1       1
      1  2.37899731E+03  7.75000000E+03  5.68751748E-05  5.10960770E+00  5.84535781E+04   10   10    1       1
      1  2.50000000E+03  7.57867090E+03  5.23870840E-05  6.36594105E+00  6.01343008E+04   11   10    1       1
      1  2.56495410E+03  7.50000000E+03  5.03911142E-05  3.06785870E+00  6.10974844E+04   11   11    1       1
      1  2.75000000E+03  7.33300684E+03  4.58690374E-05  3.13545775E+00  6.33518281E+04   12   11    1       1
      1  3.00000000E+03  7.27202148E+03  4.22576850E-05  3.37046146E+00  6.51966719E+04   13   11    1       1
      2  5.31250000E+02  6.78125000E+03  3.33333343E-01  1.89606552E+01  0.00000000E+00    3   13    1       1
      2  5.65144836E+02  7.00000000E+03  1.25467882E-01  1.58023548E+01  2.14784824E+04    3   12    1       1
      2  6.00464355E+02  7.25000000E+03  7.55284131E-02  1.56910181E+01  3.20465078E+04    3   11    1       1
      2  6.36568909E+02  7.50000000E+03  5.49525395E-02  1.39483109E+01  3.92918906E+04    3   10    1       1
      2  6.82569824E+02  7.75000000E+03  4.35475558E-02  1.60962753E+01  4.36836250E+04    3    9    1       1
      2  7.50000000E+02  7.92823730E+03  3.79929990E-02  1.29511700E+01  4.68229219E+04    4    9    1       1
      2  7.66623840E+02  8.00000000E+03  3.67003605E-02  1.61950207E+01  4.74424883E+04    4    8    1       1
      2  1.00000000E+03  8.20468164E+03  3.26901153E-02  1.36532793E+01  4.98354688E+04    5    8    1       1
      2  1.25000000E+03  8.23974707E+03  2.96333376E-02  1.56800280E+01  5.14460352E+04    6    8    1       1
      2  1.50000000E+03  8.24246289E+03  2.68961154E-02  1.51259670E+01  5.29890195E+04    7    8    1       1
      2  1.75000000E+03  8.22253418E+03  2.46998649E-02  1.48476000E+01  5.42543867E+04    8    8    1       1
      2  2.00000000E+03  8.08393262E+03  2.25226413E-02  1.56869583E+01  5.53211133E+04    9    8    1       1
      2  2.11047876E+03  8.00000000E+03  2.14229338E-02  1.50481825E+01  5.58626875E+04    9    9    1       1
      2  2.25000000E+03  7.87948926E+03  2.01186687E-02  9.08515930E+00  5.70273828E+04   10    9    1       1
      2  2.37899731E+03  7.75000000E+03  1.89138334E-02  5.41062117E+00  5.84535781E+04   10   10    1       1
      2  2.50000000E+03  7.57867090E+03  1.74225494E-02  6.61163855E+00  6.01343008E+04   11   10    1       1
      2  2.56495410E+03  7.50000000E+03  1.67550594E-02  3.35254574E+00  6.10974844E+04   11   11    1       1
      2  2.75000000E+03  7.33300684E+03  1.52468225E-02  3.38655686E+00  6.33518281E+04   12   11    1       1
      2  3.00000000E+03  7.27202148E+03  1.40538644E-02  3.58975649E+00  6.51966719E+04   13   11    1       1
      3  5.31250000E+02  6.78125000E+03  6.66666687E-01  2.40253124E+01  0.00000000E+00    3   13    1       1
      3  5.65144836E+02  7.00000000E+03  2.50935763E-01  1.77087097E+01  2.14784824E+04    3   12    1       1
      3  6.00464355E+02  7.25000000E+03  1.51056826E-01  1.67780361E+01  3.20465078E+04    3   11    1       1
      3  6.36568909E+02  7.50000000E+03  1.09905079E-01  1.48136215E+01  3.92918906E+04    3   10    1       1
      3  6.82569824E+02  7.75000000E+03  8.70948136E-02  1.66645470E+01  4.36836250E+04    3    9    1       1
      3  7.50000000E+02  7.92823730E+03  7.59856999E-02  1.35553350E+01  4.68229219E+04    4    9    1       1
      3  7.66623840E+02  8.00000000E+03  7.34003410E-02  1.66490364E+01  4.74424883E+04    4    8    1       1
      3  1.00000000E+03  8.20468164E+03  6.53800294E-02  1.41205559E+01  4.98354688E+04    5    8    1       1
      3  1.25000000E+03  8.23974707E+03  5.92665076E-02  1.60160542E+01  5.14460352E+04    6    8    1       1
      3  1.50000000E+03  8.24246289E+03  5.37919700E-02  1.54219313E+01  5.29890195E+04    7    8    1       1
      3  1.75000000E+03  8.22253418E+03  4.93993610E-02  1.51011963E+01  5.42543867E+04    8    8    1       1
      3  2.00000000E+03  8.08393262E+03  4.50448059E-02  1.58669128E+01  5.53211133E+04    9    8    1       1
      3  2.11047876E+03  8.00000000E+03  4.28452268E-02  1.52083607E+01  5.58626875E+04    9    9    1       1
      3  2.25000000E+03  7.87948926E+03  4.02368195E-02  9.34301186E+00  5.70273828E+04   10    9    1       1
      3  2.37899731E+03  7.75000000E+03  3.78271900E-02  5.71253490E+00  5.84535781E+04   10   10    1       1
      3  2.50000000E+03  7.57867090E+03  3.48445922E-02  6.85806990E+00  6.01343008E+04   11   10    1       1
      3  2.56495410E+03  7.50000000E+03  3.35096568E-02  3.63808370E+00  6.10974844E+04   11   11    1       1
      3  2.75000000E+03  7.33300684E+03  3.04931961E-02  3.63840628E+00  6.33518281E+04   12   11    1       1
      3  3.00000000E+03  7.27202148E+03  2.81072874E-02  3.80970597E+00  6.51966719E+04   13   11    1       1
      4  5.31250000E+02  6.78125000E+03  9.99000013E-01  2.90747738E+01  0.00000000E+00    3   13    1       1
      4  5.65144836E+02  7.00000000E+03  3.76027167E-01  1.96093445E+01  2.14784824E+04    3   12    1       1
      4  6.00464355E+02  7.25000000E+03  2.26358548E-01  1.78617916E+01  3.20465078E+04    3   11    1       1
      4  6.36568909E+02  7.50000000E+03  1.64692700E-01  1.56763353E+01  3.92918906E+04    3   10    1       1
      4  6.82569824E+02  7.75000000E+03  1.30511701E-01  1.72311172E+01  4.36836250E+04    3    9    1       1
      4  7.50000000E+02  7.92823730E+03  1.13864698E-01  1.41576920E+01  4.68229219E+04    4    9    1       1
      4  7.66623840E+02  8.00000000E+03  1.09990388E-01  1.71016922E+01  4.74424883E+04    4    8    1       1
      4  1.00000000E+03  8.20468164E+03  9.79718715E-02  1.45864305E+01  4.98354688E+04    5    8    1       1
      4  1.25000000E+03  8.23974707E+03  8.88109505E-02  1.63510742E+01  5.14460352E+04    6    8    1       1
      4  1.50000000E+03  8.24246289E+03  8.06073993E-02  1.57170105E+01  5.29890195E+04    7    8    1       1
      4  1.75000000E+03  8.22253418E+03  7.40251988E-02  1.53540363E+01  5.42543867E+04    8    8    1       1
      4  2.00000000E+03  8.08393262E+03  6.74998909E-02  1.60463314E+01  5.53211133E+04    9    8    1       1
      4  2.11047876E+03  8.00000000E+03  6.42037541E-02  1.53680620E+01  5.58626875E+04    9    9    1       1
      4  2.25000000E+03  7.87948926E+03  6.02951422E-02  9.60009766E+00  5.70273828E+04   10    9    1       1
      4  2.37899731E+03  7.75000000E+03  5.66842668E-02  6.01355028E+00  5.84535781E+04   10   10    1       1
      4  2.50000000E+03  7.57867090E+03  5.22148199E-02  7.10376835E+00  6.01343008E+04   11   10    1       1
      4  2.56495410E+03  7.50000000E+03  5.02143949E-02  3.92277193E+00  6.10974844E+04   11   11    1       1
      4  2.75000000E+03  7.33300684E+03  4.56942208E-02  3.88950658E+00  6.33518281E+04   12   11    1       1
      4  3.00000000E+03  7.27202148E+03  4.21189070E-02  4.02900124E+00  6.51966719E+04   13   11    1       1
      5  5.93750000E+02  6.78125000E+03  1.00000005E-03  1.39111938E+01  0.00000000E+00    3   13    1       1
      5  6.23426331E+02  7.00000000E+03  3.76411539E-04  1.39017191E+01  2.14784824E+04    3   12    1       1
      5  6.53986450E+02  7.25000000E+03  2.26620818E-04  1.46072617E+01  3.20465078E+04    3   11    1       1
      5  6.87827759E+02  7.50000000E+03  1.64916244E-04  1.30855970E+01  3.92918906E+04    3   10    1       1
      5  7.31989075E+02  7.75000000E+03  1.30742061E-04  1.55297060E+01  4.36836250E+04    3    9    1       1
      5  7.50000000E+02  7.79525195E+03  1.26119980E-04  1.23490057E+01  4.45187383E+04    4    9    1       1
      5  7.99147156E+02  8.00000000E+03  1.12936046E-04  1.57423973E+01  4.64896328E+04    4    8    1       1
      5  1.00000000E+03  8.17462891E+03  1.02611542E-04  1.31874666E+01  4.84590234E+04    5    8    1       1
      5  1.25000000E+03  8.20454590E+03  9.30165406E-05  1.53450546E+01  5.00695898E+04    6    8    1       1
      5  1.50000000E+03  8.20686328E+03  8.44121896E-05  1.48309288E+01  5.16125742E+04    7    8    1       1
      5  1.75000000E+03  8.18986035E+03  7.75589069E-05  1.45947962E+01  5.28779414E+04    8    8    1       1
      5  2.00000000E+03  8.03370068E+03  7.07786239E-05  1.55075655E+01  5.39446680E+04    9    8    1       1
      5  2.04369885E+03  8.00000000E+03  6.93843685E-05  1.48885183E+01  5.41548125E+04    9    9    1       1
      5  2.25000000E+03  7.81915723E+03  6.33951859E-05  8.82811260E+00  5.58409102E+04   10    9    1       1
      5  2.31790186E+03  7.75000000E+03  6.13857555E-05  5.10967970E+00  5.65863906E+04   10   10    1       1
      5  2.48830640E+03  7.50000000E+03  5.42749076E-05  6.36596775E+00  5.91001328E+04   10   11    1       1
      5  2.50000000E+03  7.48441846E+03  5.38186723E-05  5.44938326E+00  5.92756250E+04   11   11    1       1
      5  2.75000000E+03  7.25914209E+03  4.69371043E-05  3.13547540E+00  6.25427969E+04   12   11    1       1
      5  2.79596338E+03  7.25000000E+03  4.60812880E-05  3.37052131E+00  6.29659844E+04   12   12    1       1
      5  3.00000000E+03  7.19860596E+03  4.12283807E-05  4.19330502E+00  6.53327461E+04   13   12    1       1
      5  3.06715088E+03  7.25000000E+03  3.97117074E-05  3.07280183E+00  6.61565234E+04   13   11    1       1
      6  5.93750000E+02  6.78125000E+03  3.33333343E-01  1.89606552E+01  0.00000000E+00    3   13    1       1
      6  6.23426331E+02  7.00000000E+03  1.25467882E-01  1.58023548E+01  2.14784824E+04    3   12    1       1
      6  6.53986450E+02  7.25000000E+03  7.55284131E-02  1.56910181E+01  3.20465078E+04    3   11    1       1
      6  6.87827759E+02  7.50000000E+03  5.49525395E-02  1.39483109E+01  3.92918906E+04    3   10    1       1
      6  7.31989075E+02  7.75000000E+03  4.35475558E-02  1.60962753E+01  4.36836250E+04    3    9    1       1
      6  7.50000000E+02  7.79525195E+03  4.19951938E-02  1.30148134E+01  4.45187383E+04    4    9    1       1
      6  7.99147156E+02  8.00000000E+03  3.76161858E-02  1.62063503E+01  4.64896328E+04    4    8    1       1
      6  1.00000000E+03  8.17462891E+03  3.41992676E-02  1.36748514E+01  4.84590234E+04    5    8    1       1
      6  1.25000000E+03  8.20454590E+03  3.10014207E-02  1.56955414E+01  5.00695898E+04    6    8    1       1
      6  1.50000000E+03  8.20686328E+03  2.81378590E-02  1.51396313E+01  5.16125742E+04    7    8    1       1
      6  1.75000000E+03  8.18986035E+03  2.58402135E-02  1.48593082E+01  5.28779414E+04    8    8    1       1
      6  2.00000000E+03  8.03370068E+03  2.35623587E-02  1.56952658E+01  5.39446680E+04    9    8    1       1
      6  2.04369885E+03  8.00000000E+03  2.31090747E-02  1.50607901E+01  5.41548125E+04    9    9    1       1
      6  2.25000000E+03  7.81915723E+03  2.11004764E-02  9.09774303E+00  5.58409102E+04   10    9    1       1
      6  2.31790186E+03  7.75000000E+03  2.04302557E-02  5.43482780E+00  5.65863906E+04   10   10    1       1
      6  2.48830640E+03  7.50000000E+03  1.80686899E-02  6.62077808E+00  5.91001328E+04   10   11    1       1
      6  2.50000000E+03  7.48441846E+03  1.79188009E-02  5.70944548E+00  5.92756250E+04   11   11    1       1
      6  2.75000000E+03  7.25914209E+03  1.56291742E-02  3.39287281E+00  6.25427969E+04   12   11    1       1
      6  2.79596338E+03  7.25000000E+03  1.53397834E-02  3.60988235E+00  6.29659844E+04   12   12    1       1
      6  3.00000000E+03  7.19860596E+03  1.37218386E-02  4.39409447E+00  6.53327461E+04   13   12    1       1
      6  3.06715088E+03  7.25000000E+03  1.32158007E-02  3.27246475E+00  6.61565234E+04   13   11    1       1
      7  5.93750000E+02  6.78125000E+03  6.66666687E-01  2.40253124E+01  0.00000000E+00    3   13    1       1
      7  6.23426331E+02  7.00000000E+03  2.50935763E-01  1.77087097E+01  2.14784824E+04    3   12    1       1
      7  6.53986450E+02  7.25000000E+03  1.51056826E-01  1.67780361E+01  3.20465078E+04    3   11    1       1
      7  6.87827759E+02  7.50000000E+03  1.09905079E-01  1.48136215E+01  3.92918906E+04    3   10    1       1
      7  7.31989075E+02  7.75000000E+03  8.70948136E-02  1.66645470E+01  4.36836250E+04    3    9    1       1
      7  7.50000000E+02  7.79525195E+03  8.39900300E-02  1.36826210E+01  4.45187383E+04    4    9    1       1
      7  7.99147156E+02  8.00000000E+03  7.52321407E-02  1.66716976E+01  4.64896328E+04    4    8    1       1
      7  1.00000000E+03  8.17462891E+03  6.83983341E-02  1.41637001E+01  4.84590234E+04    5    8    1       1
      7  1.25000000E+03  8.20454590E+03  6.20025061E-02  1.60470791E+01  5.00695898E+04    6    8    1       1
      7  1.50000000E+03  8.20686328E+03  5.62753715E-02  1.54492588E+01  5.16125742E+04    7    8    1       1
      7  1.75000000E+03  8.18986035E+03  5.16801476E-02  1.51246138E+01  5.28779414E+04    8    8    1       1
      7  2.00000000E+03  8.03370068E+03  4.71244790E-02  1.58835297E+01  5.39446680E+04    9    8    1       1
      7  2.04369885E+03  8.00000000E+03  4.62178960E-02  1.52335787E+01  5.41548125E+04    9    9    1       1
      7  2.25000000E+03  7.81915723E+03  4.22008038E-02  9.36818409E+00  5.58409102E+04   10    9    1       1
      7  2.31790186E+03  7.75000000E+03  4.08603325E-02  5.76095295E+00  5.65863906E+04   10   10    1       1
      7  2.48830640E+03  7.50000000E+03  3.61372121E-02  6.87635374E+00  5.91001328E+04   10   11    1       1
      7  2.50000000E+03  7.48441846E+03  3.58373411E-02  5.97028732E+00  5.92756250E+04   11   11    1       1
      7  2.75000000E+03  7.25914209E+03  3.12581472E-02  3.65104222E+00  6.25427969E+04   12   11    1       1
      7  2.79596338E+03  7.25000000E+03  3.06793693E-02  3.84996152E+00  6.29659844E+04   12   12    1       1
      7  3.00000000E+03  7.19860596E+03  2.74435133E-02  4.59548664E+00  6.53327461E+04   13   12    1       1
      7  3.06715088E+03  7.25000000E+03  2.64314450E-02  3.47272706E+00  6.61565234E+04   13   11    1       1
      8  5.93750000E+02  6.78125000E+03  9.99000013E-01  2.90747738E+01  0.00000000E+00    3   13    1       1
      8  6.23426331E+02  7.00000000E+03  3.76027167E-01  1.96093445E+01  2.14784824E+04    3   12    1       1
      8  6.53986450E+02  7.25000000E+03  2.26358548E-01  1.78617916E+01  3.20465078E+04    3   11    1       1
      8  6.87827759E+02  7.50000000E+03  1.64692700E-01  1.56763353E+01  3.92918906E+04    3   10    1       1
      8  7.31989075E+02  7.75000000E+03  1.30511701E-01  1.72311172E+01  4.36836250E+04    3    9    1       1
      8  7.50000000E+02  7.79525195E+03  1.25859231E-01  1.43484306E+01  4.45187383E+04    4    9    1       1
      8  7.99147156E+02  8.00000000E+03  1.12735540E-01  1.71356525E+01  4.64896328E+04    4    8    1       1
      8  1.00000000E+03  8.17462891E+03  1.02495119E-01  1.46510868E+01  4.84590234E+04    5    8    1       1
      8  1.25000000E+03  8.20454590E+03  9.29110795E-02  1.63975677E+01  5.00695898E+04    6    8    1       1
      8  1.50000000E+03  8.20686328E+03  8.43287334E-02  1.57579603E+01  5.16125742E+04    7    8    1       1
      8  1.75000000E+03  8.18986035E+03  7.74427131E-02  1.53891249E+01  5.28779414E+04    8    8    1       1
      8  2.00000000E+03  8.03370068E+03  7.06162974E-02  1.60712318E+01  5.39446680E+04    9    8    1       1
      8  2.04369885E+03  8.00000000E+03  6.92577139E-02  1.54058514E+01  5.41548125E+04    9    9    1       1
      8  2.25000000E+03  7.81915723E+03  6.32379577E-02  9.63781548E+00  5.58409102E+04   10    9    1       1
      8  2.31790186E+03  7.75000000E+03  6.12292625E-02  6.08610201E+00  5.65863906E+04   10   10    1       1
      8  2.48830640E+03  7.50000000E+03  5.41516580E-02  7.13116455E+00  5.91001328E+04   10   11    1       1
      8  2.50000000E+03  7.48441846E+03  5.37023209E-02  6.23034954E+00  5.92756250E+04   11   11    1       1
      8  2.75000000E+03  7.25914209E+03  4.68403846E-02  3.90843964E+00  6.25427969E+04   12   11    1       1
      8  2.79596338E+03  7.25000000E+03  4.59731333E-02  4.08932352E+00  6.29659844E+04   12   12    1       1
      8  3.00000000E+03  7.19860596E+03  4.11241874E-02  4.79627705E+00  6.53327461E+04   13   12    1       1
      8  3.06715088E+03  7.25000000E+03  3.96075957E-02  3.67239094E+00  6.61565234E+04   13   11    1       1
      9  6.56250000E+02  6.78125000E+03  1.00000005E-03  1.39111938E+01  0.00000000E+00    3   13    1       1
      9  6.81707825E+02  7.00000000E+03  3.76411539E-04  1.39017191E+01  2.14784824E+04    3   12    1       1
      9  7.07508545E+02  7.25000000E+03  2.26620818E-04  1.46072617E+01  3.20465078E+04    3   11    1       1
      9  7.39086670E+02  7.50000000E+03  1.64916244E-04  1.30855970E+01  3.92918906E+04    3   10    1       1
      9  7.50000000E+02  7.55735889E+03  1.55443457E-04  1.55300283E+01  4.04091055E+04    4   10    1       1
      9  7.76548523E+02  7.75000000E+03  1.33427864E-04  1.41329203E+01  4.35933477E+04    4    9    1       1
      9  8.30916382E+02  8.00000000E+03  1.15942537E-04  1.57424345E+01  4.61036992E+04    4    8    1       1
      9  1.00000000E+03  8.14583447E+03  1.07348489E-04  1.31875343E+01  4.76957656E+04    5    8    1       1
      9  1.25000000E+03  8.17081836E+03  9.73898350E-05  1.53451042E+01  4.93063320E+04    6    8    1       1
      9  1.50000000E+03  8.17275342E+03  8.83121393E-05  1.48309717E+01  5.08493164E+04    7    8    1       1
      9  1.75000000E+03  8.15855420E+03  8.09956546E-05  1.45948315E+01  5.21146836E+04    8    8    1       1
      9  1.98537305E+03  8.00000000E+03  7.43593264E-05  1.55075941E+01  5.31080195E+04    8    9    1       1
      9  2.00000000E+03  7.98680225E+03  7.38165254E-05  1.28757114E+01  5.31924492E+04    9    9    1       1
      9  2.25000000E+03  7.76148730E+03  6.62226666E-05  8.82814884E+00  5.52083711E+04   10    9    1       1
      9  2.26112866E+03  7.75000000E+03  6.58664721E-05  5.10975122E+00  5.53297617E+04   10   10    1       1
      9  2.41356421E+03  7.50000000E+03  5.82528191E-05  6.36602402E+00  5.78435039E+04   10   11    1       1
      9  2.50000000E+03  7.38150879E+03  5.45065559E-05  5.44939327E+00  5.92512266E+04   11   11    1       1
      9  2.64439282E+03  7.25000000E+03  4.99825292E-05  3.13552570E+00  6.13255078E+04   11   12    1       1
      9  2.75000000E+03  7.16152881E+03  4.67022946E-05  2.54138470E+00  6.29721602E+04   12   12    1       1
      9  3.00000000E+03  7.09893604E+03  4.06435829E-05  4.19329643E+00  6.59146484E+04   13   12    1       1
      9  3.20660010E+03  7.25000000E+03  3.51332164E-05  3.07273245E+00  6.91031250E+04   13   11    1       1
     10  6.56250000E+02  6.78125000E+03  3.33333343E-01  1.89606552E+01  0.00000000E+00    3   13    1       1
     10  6.81707825E+02  7.00000000E+03  1.25467882E-01  1.58023548E+01  2.14784824E+04    3   12    1       1
     10  7.07508545E+02  7.25000000E+03  7.55284131E-02  1.56910181E+01  3.20465078E+04    3   11    1       1
     10  7.39086670E+02  7.50000000E+03  5.49525395E-02  1.39483109E+01  3.92918906E+04    3   10    1       1
     10  7.50000000E+02  7.55735889E+03  5.17950468E-02  1.62039013E+01  4.04091055E+04    4   10    1       1
     10  7.76548523E+02  7.75000000E+03  4.44514193E-02  1.47708797E+01  4.35933477E+04    4    9    1       1
     10  8.30916382E+02  8.00000000E+03  3.86342295E-02  1.62189445E+01  4.61036992E+04    4    8    1       1
     10  1.00000000E+03  8.14583447E+03  3.57715972E-02  1.36973267E+01  4.76957656E+04    5    8    1       1
     10  1.25000000E+03  8.17081836E+03  3.24266925E-02  1.57117033E+01  4.93063320E+04    6    8    1       1
     10  1.50000000E+03  8.17275342E+03  2.94314269E-02  1.51538658E+01  5.08493164E+04    7    8    1       1
     10  1.75000000E+03  8.15855420E+03  2.70282123E-02  1.48715057E+01  5.21146836E+04    8    8    1       1
     10  1.98537305E+03  8.00000000E+03  2.48027146E-02  1.57051764E+01  5.31080195E+04    8    9    1       1
     10  2.00000000E+03  7.98680225E+03  2.46530380E-02  1.31126051E+01  5.31924492E+04    9    9    1       1
     10  2.25000000E+03  7.76148730E+03  2.21134592E-02  9.11072636E+00  5.52083711E+04   10    9    1       1
     10  2.26112866E+03  7.75000000E+03  2.19975486E-02  5.45984650E+00  5.53297617E+04   10   10    1       1
     10  2.41356421E+03  7.50000000E+03  1.94548238E-02  6.64038467E+00  5.78435039E+04   10   11    1       1
     10  2.50000000E+03  7.38150879E+03  1.81969348E-02  5.71349430E+00  5.92512266E+04   11   11    1       1
     10  2.64439282E+03  7.25000000E+03  1.66841336E-02  3.41029930E+00  6.13255078E+04   11   12    1       1
     10  2.75000000E+03  7.16152881E+03  1.55913001E-02  2.80254626E+00  6.29721602E+04   12   12    1       1
     10  3.00000000E+03  7.09893604E+03  1.35737862E-02  4.39192152E+00  6.59146484E+04   13   12    1       1
     10  3.20660010E+03  7.25000000E+03  1.17364926E-02  3.25004816E+00  6.91031250E+04   13   11    1       1
     11  6.56250000E+02  6.78125000E+03  6.66666687E-01  2.40253124E+01  0.00000000E+00    3   13    1       1
     11  6.81707825E+02  7.00000000E+03  2.50935763E-01  1.77087097E+01  2.14784824E+04    3   12    1       1
     11  7.07508545E+02  7.25000000E+03  1.51056826E-01  1.67780361E+01  3.20465078E+04    3   11    1       1
     11  7.39086670E+02  7.50000000E+03  1.09905079E-01  1.48136215E+01  3.92918906E+04    3   10    1       1
     11  7.50000000E+02  7.55735889E+03  1.03589945E-01  1.68798008E+01  4.04091055E+04    4   10    1       1
     11  7.76548523E+02  7.75000000E+03  8.89027715E-02  1.54107590E+01  4.35933477E+04    4    9    1       1
     11  8.30916382E+02  8.00000000E+03  7.72682205E-02  1.66968861E+01  4.61036992E+04    4    8    1       1
     11  1.00000000E+03  8.14583447E+03  7.15429932E-02  1.42086506E+01  4.76957656E+04    5    8    1       1
     11  1.25000000E+03  8.17081836E+03  6.48532212E-02  1.60794048E+01  4.93063320E+04    6    8    1       1
     11  1.50000000E+03  8.17275342E+03  5.88626824E-02  1.54777298E+01  5.08493164E+04    7    8    1       1
     11  1.75000000E+03  8.15855420E+03  5.40560521E-02  1.51490078E+01  5.21146836E+04    8    8    1       1
     11  1.98537305E+03  8.00000000E+03  4.96049523E-02  1.59033489E+01  5.31080195E+04    8    9    1       1
     11  2.00000000E+03  7.98680225E+03  4.93055806E-02  1.33502054E+01  5.31924492E+04    9    9    1       1
     11  2.25000000E+03  7.76148730E+03  4.42264006E-02  9.39414597E+00  5.52083711E+04   10    9    1       1
     11  2.26112866E+03  7.75000000E+03  4.39945608E-02  5.81098461E+00  5.53297617E+04   10   10    1       1
     11  2.41356421E+03  7.50000000E+03  3.89091410E-02  6.91556215E+00  5.78435039E+04   10   11    1       1
     11  2.50000000E+03  7.38150879E+03  3.63934115E-02  5.97838211E+00  5.92512266E+04   11   11    1       1
     11  2.64439282E+03  7.25000000E+03  3.33678350E-02  3.68589139E+00  6.13255078E+04   11   12    1       1
     11  2.75000000E+03  7.16152881E+03  3.11822165E-02  3.06448603E+00  6.29721602E+04   12   12    1       1
     11  3.00000000E+03  7.09893604E+03  2.71471832E-02  4.59113741E+00  6.59146484E+04   13   12    1       1
     11  3.20660010E+03  7.25000000E+03  2.34726556E-02  3.42789125E+00  6.91031250E+04   13   11    1       1
     12  6.56250000E+02  6.78125000E+03  9.99000013E-01  2.90747738E+01  0.00000000E+00    3   13    1       1
     12  6.81707825E+02  7.00000000E+03  3.76027167E-01  1.96093445E+01  2.14784824E+04    3   12    1       1
     12  7.07508545E+02  7.25000000E+03  2.26358548E-01  1.78617916E+01  3.20465078E+04    3   11    1       1
     12  7.39086670E+02  7.50000000E+03  1.64692700E-01  1.56763353E+01  3.92918906E+04    3   10    1       1
     12  7.50000000E+02  7.55735889E+03  1.55229628E-01  1.75536747E+01  4.04091055E+04    4   10    1       1
     12  7.76548523E+02  7.75000000E+03  1.33220822E-01  1.60487194E+01  4.35933477E+04    4    9    1       1
     12  8.30916382E+02  8.00000000E+03  1.15786590E-01  1.71733971E+01  4.61036992E+04    4    8    1       1
     12  1.00000000E+03  8.14583447E+03  1.07207246E-01  1.47184429E+01  4.76957656E+04    5    8    1       1
     12  1.25000000E+03  8.17081836E+03  9.71826091E-02  1.64460049E+01  4.93063320E+04    6    8    1       1
     12  1.50000000E+03  8.17275342E+03  8.82057995E-02  1.58006239E+01  5.08493164E+04    7    8    1       1
     12  1.75000000E+03  8.15855420E+03  8.10031742E-02  1.54256811E+01  5.21146836E+04    8    8    1       1
     12  1.98537305E+03  8.00000000E+03  7.43333101E-02  1.61009312E+01  5.31080195E+04    8    9    1       1
     12  2.00000000E+03  7.98680225E+03  7.38845021E-02  1.35870962E+01  5.31924492E+04    9    9    1       1
     12  2.25000000E+03  7.76148730E+03  6.62732646E-02  9.67671871E+00  5.52083711E+04   10    9    1       1
     12  2.26112866E+03  7.75000000E+03  6.59258291E-02  6.16107321E+00  5.53297617E+04   10   10    1       1
     12  2.41356421E+03  7.50000000E+03  5.83053418E-02  7.18991756E+00  5.78435039E+04   10   11    1       1
     12  2.50000000E+03  7.38150879E+03  5.45355454E-02  6.24247885E+00  5.92512266E+04   11   11    1       1
     12  2.64439282E+03  7.25000000E+03  5.00017256E-02  3.96066070E+00  6.13255078E+04   11   12    1       1
     12  2.75000000E+03  7.16152881E+03  4.67265435E-02  3.32564306E+00  6.29721602E+04   12   12    1       1
     12  3.00000000E+03  7.09893604E+03  4.06800993E-02  4.78975916E+00  6.59146484E+04   13   12    1       1
     12  3.20660010E+03  7.25000000E+03  3.51737961E-02  3.60520363E+00  6.91031250E+04   13   11    1       1
     13  7.18750000E+02  6.78125000E+03  1.00000005E-03  1.39111938E+01  0.00000000E+00    3   13    1       1
     13  7.39989319E+02  7.00000000E+03  3.76411539E-04  1.39017191E+01  2.14784824E+04    3   12    1       1
     13  7.50000000E+02  7.09813379E+03  2.97257589E-04  1.46082783E+01  2.63942617E+04    4   12    1       1
     13  7.61016907E+02  7.25000000E+03  2.26750024E-04  1.44992857E+01  3.20760703E+04    4   11    1       1
     13  7.87494934E+02  7.50000000E+03  1.66876634E-04  1.55192175E+01  3.79742773E+04    4   10    1       1
     13  8.17533997E+02  7.75000000E+03  1.35614115E-04  1.41329517E+01  4.22968945E+04    4    9    1       1
     13  8.61929688E+02  8.00000000E+03  1.17946867E-04  1.57424593E+01  4.48072461E+04    4    8    1       1
     13  1.00000000E+03  8.11820752E+03  1.11017951E-04  1.31875868E+01  4.60601328E+04    5    8    1       1
     13  1.25000000E+03  8.13845850E+03  1.00585705E-04  1.53451405E+01  4.76706992E+04    6    8    1       1
     13  1.50000000E+03  8.14002686E+03  9.12587639E-05  1.48310041E+01  4.92136836E+04    7    8    1       1
     13  1.75000000E+03  8.12851758E+03  8.38750857E-05  1.45948610E+01  5.04790508E+04    8    8    1       1
     13  1.93915894E+03  8.00000000E+03  7.85368175E-05  1.55076275E+01  5.12511172E+04    8    9    1       1
     13  2.00000000E+03  7.94453125E+03  7.62902710E-05  1.28757353E+01  5.16416641E+04    9    9    1       1
     13  2.21149780E+03  7.75000000E+03  6.96454154E-05  8.82819271E+00  5.33252344E+04    9   10    1       1
     13  2.25000000E+03  7.66082715E+03  6.68659559E-05  1.03926992E+01  5.39256680E+04   10   10    1       1
     13  2.34370459E+03  7.50000000E+03  6.16239340E-05  6.36607170E+00  5.55859883E+04   10   11    1       1
     13  2.50000000E+03  7.27920068E+03  5.39824541E-05  5.44938564E+00  5.83667617E+04   11   11    1       1
     13  2.53096802E+03  7.25000000E+03  5.28547571E-05  3.13557315E+00  5.88687109E+04   11   12    1       1
     13  2.75000000E+03  7.05899658E+03  4.53683460E-05  2.54136229E+00  6.25841836E+04   12   12    1       1
     13  2.99033203E+03  7.00000000E+03  3.96689138E-05  4.19328213E+00  6.54208359E+04   12   13    1       1
     13  3.00000000E+03  6.99735303E+03  3.94331728E-05  1.65277350E+00  6.55698125E+04   13   13    1       1
     13  3.03512793E+03  7.00000000E+03  3.85697240E-05  1.49384677E+00  6.61056094E+04   13   12    1       1
     13  3.25000000E+03  7.03628613E+03  3.23798304E-05  3.07269073E+00  6.99414219E+04   14   12    1       1