@ [ MODPATH 5.0 (TREF=   0.000000E+00 ) ]
      1  5.31250000E+02  6.78125000E+03  1.00000005E-03  1.39110565E+01  0.00000000E+00    3   13    1       1
      1  5.38325195E+02  6.75000000E+03  8.40317633E-04  1.39086523E+01  3.78910742E+03    3   14    1       1
      1  5.78109314E+02  6.50000000E+03  3.90501751E-04  1.17057228E+01  2.28754414E+04    3   15    1       1
      1  5.99074280E+02  6.25000000E+03  2.65219627E-04  1.05778408E+01  3.30911289E+04    3   16    1       1
      1  6.08292786E+02  6.00000000E+03  2.05341566E-04  1.04127531E+01  3.98516484E+04    3   17    1       1
      1  6.14792786E+02  5.75000000E+03  1.70424202E-04  9.22738361E+00  4.50504531E+04    3   18    1       1
      1  6.24157776E+02  5.50000000E+03  1.47817744E-04  6.91875362E+00  4.94453789E+04    3   19    1       1
      1  6.35021667E+02  5.25000000E+03  1.31864392E-04  6.06608772E+00  5.30601758E+04    3   20    1       1
      1  6.55367859E+02  5.00000000E+03  1.19444812E-04  3.99712300E+00  5.64418945E+04    3   21    1       1
      1  6.89109619E+02  4.75000000E+03  1.09038141E-04  7.88051081E+00  5.89934141E+04    3   22    1       1
      1  7.46663391E+02  4.50000000E+03  9.99230324E-05  4.73250580E+00  6.17895195E+04    3   23    1       1
      1  7.50000000E+02  4.49374951E+03  9.97113384E-05  5.47458029E+00  6.18553828E+04    4   23    1       1
      1  9.05922424E+02  4.25000000E+03  9.19620798E-05  8.63700199E+00  6.38829023E+04    4   24    1       1
      1  1.00000000E+03  4.16614990E+03  8.87020506E-05  9.38663197E+00  6.47212305E+04    5   24    1       1
      1  1.25000000E+03  4.01628760E+03  8.28584380E-05  1.10131483E+01  6.60881094E+04    6   24    1       1
      1  1.37992480E+03  4.00000000E+03  8.05417585E-05  1.14109945E+01  6.66011016E+04    6   25    1       1
      1  1.50000000E+03  3.98061523E+03  7.78974136E-05  5.24303198E+00  6.74900859E+04    7   25    1       1
      1  1.61289795E+03  4.00000000E+03  7.55216461E-05  5.80038548E+00  6.82568750E+04    7   24    1       1
      1  1.75000000E+03  4.02843652E+03  7.25313657E-05  1.04518862E+01  6.89561875E+04    8   24    1       1
      1  2.00000000E+03  4.10073730E+03  6.69149376E-05  4.76765108E+00  7.09695938E+04    9   24    1       1
      1  2.25000000E+03  4.18062695E+03  6.09998824E-05  7.02316999E+00  7.28735938E+04   10   24    1       1
      1  2.50000000E+03  4.22112988E+03  5.49230645E-05  5.08244228E+00  7.52004062E+04   11   24    1       1
      1  2.66708936E+03  4.25000000E+03  5.11597354E-05  1.49081814E+00  7.70449531E+04   11   23    1       1
      1  2.75000000E+03  4.26595020E+03  4.92670733E-05  1.28398645E+00  7.80258672E+04   12   23    1       1
      1  3.00000000E+03  4.29809961E+03  4.41419288E-05  1.88562834E+00  8.06455547E+04   13   23    1       1
      1  3.25000000E+03  4.31823340E+03  3.96853357E-05  1.16474426E+00  8.31469375E+04   14   23    1       1
      1  3.50000000E+03  4.31559424E+03  3.56812052E-05  2.00891089E+00  8.53520469E+04   15   23    1       1
      2  5.31250000E+02  6.78125000E+03  3.33333343E-01  1.89148941E+01  0.00000000E+00    3   13    1       1
      2  5.38325195E+02  6.75000000E+03  2.80114412E-01  1.81135941E+01  3.78910742E+03    3   14    1       1
      2  5.78109314E+02  6.50000000E+03  1.30172193E-01  1.39399023E+01  2.28754414E+04    3   15    1       1
      2  5.99074280E+02  6.25000000E+03  8.84110406E-02  1.21866989E+01  3.30911289E+04    3   16    1       1
      2  6.08292786E+02  6.00000000E+03  6.84638023E-02  1.16602068E+01  3.98516484E+04    3   17    1       1
      2  6.14792786E+02  5.75000000E+03  5.68147153E-02  1.03187284E+01  4.50504531E+04    3   18    1       1
      2  6.24157776E+02  5.50000000E+03  4.92749549E-02  7.96691751E+00  4.94453789E+04    3   19    1       1
      2  6.35021667E+02  5.25000000E+03  4.39618602E-02  7.02592993E+00  5.30601758E+04    3   20    1       1
      2  6.55367859E+02  5.00000000E+03  3.98222618E-02  4.93551111E+00  5.64418945E+04    3   21    1       1
      2  6.89109619E+02  4.75000000E+03  3.63548994E-02  8.58222389E+00  5.89934141E+04    3   22    1       1
      2  7.46663391E+02  4.50000000E+03  3.33074629E-02  5.46557808E+00  6.17895195E+04    3   23    1       1
      2  7.50000000E+02  4.49374951E+03  3.32348645E-02  6.16593313E+00  6.18553828E+04    4   23    1       1
      2  9.05922424E+02  4.25000000E+03  3.06661781E-02  9.16966915E+00  6.38829023E+04    4   24    1       1
      2  1.00000000E+03  4.16614990E+03  2.95853224E-02  9.86296272E+00  6.47212305E+04    5   24    1       1
      2  1.25000000E+03  4.01628760E+03  2.76354924E-02  1.13949633E+01  6.60881094E+04    6   24    1       1
      2  1.37992480E+03  4.00000000E+03  2.68533025E-02  1.17416353E+01  6.66011016E+04    6   25    1       1
      2  1.50000000E+03  3.98061523E+03  2.59705242E-02  5.71900082E+00  6.74900859E+04    7   25    1       1
      2  1.61289795E+03  4.00000000E+03  2.51743942E-02  6.22762632E+00  6.82568750E+04    7   24    1       1
      2  1.75000000E+03  4.02843652E+03  2.41976809E-02  1.07465725E+01  6.89561875E+04    8   24    1       1
      2  2.00000000E+03  4.10073730E+03  2.23171581E-02  5.15040445E+00  7.09695938E+04    9   24    1       1
      2  2.25000000E+03  4.18062695E+03  2.03505307E-02  7.31262159E+00  7.28735938E+04   10   24    1       1
      2  2.50000000E+03  4.22112988E+03  1.83239952E-02  5.36254835E+00  7.52004062E+04   11   24    1       1
      2  2.66708936E+03  4.25000000E+03  1.70674045E-02  1.79620409E+00  7.70449531E+04   11   23    1       1
      2  2.75000000E+03  4.26595020E+03  1.64362211E-02  1.57882953E+00  7.80258672E+04   12   23    1       1
      2  3.00000000E+03  4.29809961E+03  1.47280088E-02  2.12792110E+00  8.06455547E+04   13   23    1       1
      2  3.25000000E+03  4.31823340E+03  1.32399872E-02  1.37902308E+00  8.31469375E+04   14   23    1       1
      2  3.50000000E+03  4.31559424E+03  1.19031202E-02  2.17884469E+00  8.53520469E+04   15   23    1       1
      3  5.31250000E+02  6.78125000E+03  6.66666687E-01  2.39337902E+01  0.00000000E+00    3   13    1       1
      3  5.38325195E+02  6.75000000E+03  5.60228944E-01  2.23311901E+01  3.78910742E+03    3   14    1       1
      3  5.78109314E+02  6.50000000E+03  2.60344446E-01  1.61808052E+01  2.28754414E+04    3   15    1       1
      3  5.99074280E+02  6.25000000E+03  1.76822141E-01  1.38003988E+01  3.30911289E+04    3   16    1       1
      3  6.08292786E+02  6.00000000E+03  1.36927709E-01  1.29114151E+01  3.98516484E+04    3   17    1       1
      3  6.14792786E+02  5.75000000E+03  1.13629527E-01  1.14133587E+01  4.50504531E+04    3   18    1       1
      3  6.24157776E+02  5.50000000E+03  9.85499546E-02  9.01823616E+00  4.94453789E+04    3   19    1       1
      3  6.35021667E+02  5.25000000E+03  8.79238099E-02  7.98866177E+00  5.30601758E+04    3   20    1       1
      3  6.55367859E+02  5.00000000E+03  7.96446055E-02  5.87672424E+00  5.64418945E+04    3   21    1       1
      3  6.89109619E+02  4.75000000E+03  7.27098957E-02  9.28604984E+00  5.89934141E+04    3   22    1       1
      3  7.46663391E+02  4.50000000E+03  6.66149706E-02  6.20085716E+00  6.17895195E+04    3   23    1       1
      3  7.50000000E+02  4.49374951E+03  6.64697737E-02  6.85936737E+00  6.18553828E+04    4   23    1       1
      3  9.05922424E+02  4.25000000E+03  6.13324083E-02  9.70393944E+00  6.38829023E+04    4   24    1       1
      3  1.00000000E+03  4.16614990E+03  5.91706447E-02  1.03407259E+01  6.47212305E+04    5   24    1       1
      3  1.25000000E+03  4.01628760E+03  5.52709140E-02  1.17779255E+01  6.60881094E+04    6   24    1       1
      3  1.37992480E+03  4.00000000E+03  5.37066050E-02  1.20732708E+01  6.66011016E+04    6   25    1       1
      3  1.50000000E+03  3.98061523E+03  5.19410484E-02  6.19640160E+00  6.74900859E+04    7   25    1       1
      3  1.61289795E+03  4.00000000E+03  5.03487326E-02  6.65615177E+00  6.82568750E+04    7   24    1       1
      3  1.75000000E+03  4.02843652E+03  4.83952053E-02  1.10421429E+01  6.89561875E+04    8   24    1       1
      3  2.00000000E+03  4.10073730E+03  4.46342044E-02  5.53430700E+00  7.09695938E+04    9   24    1       1
      3  2.25000000E+03  4.18062695E+03  4.07008938E-02  7.60294104E+00  7.28735938E+04   10   24    1       1
      3  2.50000000E+03  4.22112988E+03  3.66478041E-02  5.64349365E+00  7.52004062E+04   11   24    1       1
      3  2.66708936E+03  4.25000000E+03  3.41346450E-02  2.10250521E+00  7.70449531E+04   11   23    1       1
      3  2.75000000E+03  4.26595020E+03  3.28722969E-02  1.87455642E+00  7.80258672E+04   12   23    1       1
      3  3.00000000E+03  4.29809961E+03  2.94558648E-02  2.37093973E+00  8.06455547E+04   13   23    1       1
      3  3.25000000E+03  4.31823340E+03  2.64798421E-02  1.59394395E+00  8.31469375E+04   14   23    1       1
      3  3.50000000E+03  4.31559424E+03  2.38061231E-02  2.34928775E+00  8.53520469E+04   15   23    1       1
      4  5.31250000E+02  6.78125000E+03  9.99000013E-01  2.89376278E+01  0.00000000E+00    3   13    1       1
      4  5.38325195E+02  6.75000000E+03  8.39503050E-01  2.65361328E+01  3.78910742E+03    3   14    1       1
      4  5.78109314E+02  6.50000000E+03  3.90126079E-01  1.84149837E+01  2.28754414E+04    3   15    1       1
      4  5.99074280E+02  6.25000000E+03  2.64967889E-01  1.54092560E+01  3.30911289E+04    3   16    1       1
      4  6.08292786E+02  6.00000000E+03  2.05186069E-01  1.41588669E+01  3.98516484E+04    3   17    1       1
      4  6.14792786E+02  5.75000000E+03  1.70273766E-01  1.25047026E+01  4.50504531E+04    3   18    1       1
      4  6.24157776E+02  5.50000000E+03  1.47677064E-01  1.00663996E+01  4.94453789E+04    3   19    1       1
      4  6.35021667E+02  5.25000000E+03  1.31753787E-01  8.94850349E+00  5.30601758E+04    3   20    1       1
      4  6.55367859E+02  5.00000000E+03  1.19347408E-01  6.81511211E+00  5.64418945E+04    3   21    1       1
      4  6.89109619E+02  4.75000000E+03  1.08955830E-01  9.98776436E+00  5.89934141E+04    3   22    1       1
      4  7.46663391E+02  4.50000000E+03  9.98225957E-02  6.93393135E+00  6.17895195E+04    3   23    1       1
      4  7.50000000E+02  4.49374951E+03  9.96050239E-02  7.55072212E+00  6.18553828E+04    4   23    1       1
      4  9.05922424E+02  4.25000000E+03  9.19066221E-02  1.02366066E+01  6.38829023E+04    4   24    1       1
      4  1.00000000E+03  4.16614990E+03  8.86672661E-02  1.08170567E+01  6.47212305E+04    5   24    1       1
      4  1.25000000E+03  4.01628760E+03  8.28236192E-02  1.21597414E+01  6.60881094E+04    6   24    1       1
      4  1.37992480E+03  4.00000000E+03  8.04793611E-02  1.24039116E+01  6.66011016E+04    6   25    1       1
      4  1.50000000E+03  3.98061523E+03  7.78336525E-02  6.67236996E+00  6.74900859E+04    7   25    1       1
      4  1.61289795E+03  4.00000000E+03  7.54476041E-02  7.08339262E+00  6.82568750E+04    7   24    1       1
      4  1.75000000E+03  4.02843652E+03  7.25203529E-02  1.13368292E+01  6.89561875E+04    8   24    1       1
      4  2.00000000E+03  4.10073730E+03  6.68844730E-02  5.91706085E+00  7.09695938E+04    9   24    1       1
      4  2.25000000E+03  4.18062695E+03  6.09904230E-02  7.89239264E+00  7.28735938E+04   10   24    1       1
      4  2.50000000E+03  4.22112988E+03  5.49168773E-02  5.92359972E+00  7.52004062E+04   11   24    1       1
      4  2.66708936E+03  4.25000000E+03  5.11508957E-02  2.40789127E+00  7.70449531E+04   11   23    1       1
      4  2.75000000E+03  4.26595020E+03  4.92592491E-02  2.16939950E+00  7.80258672E+04   12   23    1       1
      4  3.00000000E+03  4.29809961E+03  4.41397242E-02  2.61323237E+00  8.06455547E+04   13   23    1       1
      4  3.25000000E+03  4.31823340E+03  3.96801382E-02  1.80822265E+00  8.31469375E+04   14   23    1       1
      4  3.50000000E+03  4.31559424E+03  3.56735438E-02  2.51922131E+00  8.53520469E+04   15   23    1       1
      5  5.93750000E+02  6.78125000E+03  1.00000005E-03  1.39110565E+01  0.00000000E+00    3   13    1       1
      5  5.99195068E+02  6.75000000E+03  8.40317633E-04  1.39086523E+01  3.78910742E+03    3   14    1       1
      5  6.30071350E+02  6.50000000E+03  3.90501751E-04  1.17057228E+01  2.28754414E+04    3   15    1       1
      5  6.45833191E+02  6.25000000E+03  2.65219627E-04  1.05778408E+01  3.30911289E+04    3   16    1       1
      5  6.51026367E+02  6.00000000E+03  2.05341566E-04  1.04127531E+01  3.98516484E+04    3   17    1       1
      5  6.53397644E+02  5.75000000E+03  1.70424202E-04  9.22738361E+00  4.50504531E+04    3   18    1       1
      5  6.58708679E+02  5.50000000E+03  1.47817744E-04  6.91875362E+00  4.94453789E+04    3   19    1       1
      5  6.66985107E+02  5.25000000E+03  1.31864392E-04  6.06608772E+00  5.30601758E+04    3   20    1       1
      5  6.87413757E+02  5.00000000E+03  1.19444812E-04  3.99712300E+00  5.64418945E+04    3   21    1       1
      5  7.21889771E+02  4.75000000E+03  1.09038141E-04  7.88051081E+00  5.89934141E+04    3   22    1       1
      5  7.50000000E+02  4.63114209E+03  1.04610299E-04  4.73260927E+00  6.03267500E+04    4   22    1       1
      5  7.75080811E+02  4.50000000E+03  1.00712117E-04  8.28255463E+00  6.13539258E+04    4   23    1       1
      5  9.49792725E+02  4.25000000E+03  9.27831643E-05  8.63701630E+00  6.34247422E+04    4   24    1       1
      5  1.00000000E+03  4.20562549E+03  9.10642921E-05  9.38667011E+00  6.38536992E+04    5   24    1       1
      5  1.25000000E+03  4.04248584E+03  8.50606593E-05  1.10131788E+01  6.52205781E+04    6   24    1       1
      5  1.50000000E+03  4.01319531E+03  8.03873190E-05  1.14109926E+01  6.62259844E+04    7   24    1       1
      5  1.75000000E+03  4.07169751E+03  7.51859043E-05  1.04519186E+01  6.74213984E+04    8   24    1       1
      5  2.00000000E+03  4.15011035E+03  6.93542534E-05  4.76769304E+00  6.94348047E+04    9   24    1       1
      5  2.25000000E+03  4.24775293E+03  6.32059091E-05  7.02320147E+00  7.13388047E+04   10   24    1       1
      5  2.26205762E+03  4.25000000E+03  6.29158312E-05  5.08256483E+00  7.14490078E+04   10   23    1       1
      5  2.50000000E+03  4.30403027E+03  5.61122324E-05  6.08619213E+00  7.37826406E+04   11   23    1       1
      5  2.75000000E+03  4.35790088E+03  4.99958769E-05  1.28399956E+00  7.67866406E+04   12   23    1       1
      5  3.00000000E+03  4.39529199E+03  4.47993625E-05  1.88563919E+00  7.94063281E+04   13   23    1       1
      5  3.25000000E+03  4.42573828E+03  4.02728328E-05  1.16475379E+00  8.19077031E+04   14   23    1       1
      5  3.50000000E+03  4.43569385E+03  3.62140090E-05  2.00891852E+00  8.41128125E+04   15   23    1       1
      6  5.93750000E+02  6.78125000E+03  3.33333343E-01  1.89148941E+01  0.00000000E+00    3   13    1       1
      6  5.99195068E+02  6.75000000E+03  2.80114412E-01  1.81135941E+01  3.78910742E+03    3   14    1       1
      6  6.30071350E+02  6.50000000E+03  1.30172193E-01  1.39399023E+01  2.28754414E+04    3   15    1       1
      6  6.45833191E+02  6.25000000E+03  8.84110406E-02  1.21866989E+01  3.30911289E+04    3   16    1       1
      6  6.51026367E+02  6.00000000E+03  6.84638023E-02  1.16602068E+01  3.98516484E+04    3   17    1       1
      6  6.53397644E+02  5.75000000E+03  5.68147153E-02  1.03187284E+01  4.50504531E+04    3   18    1       1
      6  6.58708679E+02  5.50000000E+03  4.92749549E-02  7.96691751E+00  4.94453789E+04    3   19    1       1
      6  6.66985107E+02  5.25000000E+03  4.39618602E-02  7.02592993E+00  5.30601758E+04    3   20    1       1
      6  6.87413757E+02  5.00000000E+03  3.98222618E-02  4.93551111E+00  5.64418945E+04    3   21    1       1
      6  7.21889771E+02  4.75000000E+03  3.63548994E-02  8.58222389E+00  5.89934141E+04    3   22    1       1
      6  7.50000000E+02  4.63114209E+03  3.48684303E-02  5.50003719E+00  6.03267500E+04    4   22    1       1
      6  7.75080811E+02  4.50000000E+03  3.35498750E-02  8.89861488E+00  6.13539258E+04    4   23    1       1
      6  9.49792725E+02  4.25000000E+03  3.09036914E-02  9.17380714E+00  6.34247422E+04    4   24    1       1
      6  1.00000000E+03  4.20562549E+03  3.03414762E-02  9.87517357E+00  6.38536992E+04    5   24    1       1
      6  1.25000000E+03  4.04248584E+03  2.83417851E-02  1.14047508E+01  6.52205781E+04    6   24    1       1
      6  1.50000000E+03  4.01319531E+03  2.67910622E-02  1.17408667E+01  6.62259844E+04    7   24    1       1
      6  1.75000000E+03  4.07169751E+03  2.50387788E-02  1.07568464E+01  6.74213984E+04    8   24    1       1
      6  2.00000000E+03  4.15011035E+03  2.30928883E-02  5.16374874E+00  6.94348047E+04    9   24    1       1
      6  2.25000000E+03  4.24775293E+03  2.10578609E-02  7.32271242E+00  7.13388047E+04   10   24    1       1
      6  2.26205762E+03  4.25000000E+03  2.09534913E-02  5.40286446E+00  7.14490078E+04   10   23    1       1
      6  2.50000000E+03  4.30403027E+03  1.86907798E-02  6.34922123E+00  7.37826406E+04   11   23    1       1
      6  2.75000000E+03  4.35790088E+03  1.66536421E-02  1.58274150E+00  7.67866406E+04   12   23    1       1
      6  3.00000000E+03  4.39529199E+03  1.49228256E-02  2.13113570E+00  7.94063281E+04   13   23    1       1
      6  3.25000000E+03  4.42573828E+03  1.34151205E-02  1.38186598E+00  8.19077031E+04   14   23    1       1
      6  3.50000000E+03  4.43569385E+03  1.20605798E-02  2.18109941E+00  8.41128125E+04   15   23    1       1
      7  5.93750000E+02  6.78125000E+03  6.66666687E-01  2.39337902E+01  0.00000000E+00    3   13    1       1
      7  5.99195068E+02  6.75000000E+03  5.60228944E-01  2.23311901E+01  3.78910742E+03    3   14    1       1
      7  6.30071350E+02  6.50000000E+03  2.60344446E-01  1.61808052E+01  2.28754414E+04    3   15    1       1
      7  6.45833191E+02  6.25000000E+03  1.76822141E-01  1.38003988E+01  3.30911289E+04    3   16    1       1
      7  6.51026367E+02  6.00000000E+03  1.36927709E-01  1.29114151E+01  3.98516484E+04    3   17    1       1
      7  6.53397644E+02  5.75000000E+03  1.13629527E-01  1.14133587E+01  4.50504531E+04    3   18    1       1
      7  6.58708679E+02  5.50000000E+03  9.85499546E-02  9.01823616E+00  4.94453789E+04    3   19    1       1
      7  6.66985107E+02  5.25000000E+03  8.79238099E-02  7.98866177E+00  5.30601758E+04    3   20    1       1
      7  6.87413757E+02  5.00000000E+03  7.96446055E-02  5.87672424E+00  5.64418945E+04    3   21    1       1
      7  7.21889771E+02  4.75000000E+03  7.27098957E-02  9.28604984E+00  5.89934141E+04    3   22    1       1
      7  7.50000000E+02  4.63114209E+03  6.97369054E-02  6.26977539E+00  6.03267500E+04    4   22    1       1
      7  7.75080811E+02  4.50000000E+03  6.70998022E-02  9.51653099E+00  6.13539258E+04    4   23    1       1
      7  9.49792725E+02  4.25000000E+03  6.18074387E-02  9.71221542E+00  6.34247422E+04    4   24    1       1
      7  1.00000000E+03  4.20562549E+03  6.06830120E-02  1.03651485E+01  6.38536992E+04    5   24    1       1
      7  1.25000000E+03  4.04248584E+03  5.66836372E-02  1.17975025E+01  6.52205781E+04    6   24    1       1
      7  1.50000000E+03  4.01319531E+03  5.35820462E-02  1.20717325E+01  6.62259844E+04    7   24    1       1
      7  1.75000000E+03  4.07169751E+03  5.00774048E-02  1.10626907E+01  6.74213984E+04    8   24    1       1
      7  2.00000000E+03  4.15011035E+03  4.61856648E-02  5.56099558E+00  6.94348047E+04    9   24    1       1
      7  2.25000000E+03  4.24775293E+03  4.21156213E-02  7.62312365E+00  7.13388047E+04   10   24    1       1
      7  2.26205762E+03  4.25000000E+03  4.19068895E-02  5.72412729E+00  7.14490078E+04   10   23    1       1
      7  2.50000000E+03  4.30403027E+03  3.73814553E-02  6.61304092E+00  7.37826406E+04   11   23    1       1
      7  2.75000000E+03  4.35790088E+03  3.33071910E-02  1.88238132E+00  7.67866406E+04   12   23    1       1
      7  3.00000000E+03  4.39529199E+03  2.98455562E-02  2.37736988E+00  7.94063281E+04   13   23    1       1
      7  3.25000000E+03  4.42573828E+03  2.68301591E-02  1.59963059E+00  8.19077031E+04   14   23    1       1
      7  3.50000000E+03  4.43569385E+03  2.41210610E-02  2.35379744E+00  8.41128125E+04   15   23    1       1
      8  5.93750000E+02  6.78125000E+03  9.99000013E-01  2.89376278E+01  0.00000000E+00    3   13    1       1
      8  5.99195068E+02  6.75000000E+03  8.39503050E-01  2.65361328E+01  3.78910742E+03    3   14    1       1
      8  6.30071350E+02  6.50000000E+03  3.90126079E-01  1.84149837E+01  2.28754414E+04    3   15    1       1
      8  6.45833191E+02  6.25000000E+03  2.64967889E-01  1.54092560E+01  3.30911289E+04    3   16    1       1
      8  6.51026367E+02  6.00000000E+03  2.05186069E-01  1.41588669E+01  3.98516484E+04    3   17    1       1
      8  6.53397644E+02  5.75000000E+03  1.70273766E-01  1.25047026E+01  4.50504531E+04    3   18    1       1
      8  6.58708679E+02  5.50000000E+03  1.47677064E-01  1.00663996E+01  4.94453789E+04    3   19    1       1
      8  6.66985107E+02  5.25000000E+03  1.31753787E-01  8.94850349E+00  5.30601758E+04    3   20    1       1
      8  6.87413757E+02  5.00000000E+03  1.19347408E-01  6.81511211E+00  5.64418945E+04    3   21    1       1
      8  7.21889771E+02  4.75000000E+03  1.08955830E-01  9.98776436E+00  5.89934141E+04    3   22    1       1
      8  7.50000000E+02  4.63114209E+03  1.04500830E-01  7.03720570E+00  6.03267500E+04    4   22    1       1
      8  7.75080811E+02  4.50000000E+03  1.00549117E-01  1.01325941E+01  6.13539258E+04    4   23    1       1
      8  9.49792725E+02  4.25000000E+03  9.26185101E-02  1.02490091E+01  6.34247422E+04    4   24    1       1
      8  1.00000000E+03  4.20562549E+03  9.09334794E-02  1.08536530E+01  6.38536992E+04    5   24    1       1
      8  1.25000000E+03  4.04248584E+03  8.49403590E-02  1.21890745E+01  6.52205781E+04    6   24    1       1
      8  1.50000000E+03  4.01319531E+03  8.02927241E-02  1.24016066E+01  6.62259844E+04    7   24    1       1
      8  1.75000000E+03  4.07169751E+03  7.50410780E-02  1.13676195E+01  6.74213984E+04    8   24    1       1
      8  2.00000000E+03  4.15011035E+03  6.92093074E-02  5.95705318E+00  6.94348047E+04    9   24    1       1
      8  2.25000000E+03  4.24775293E+03  6.31103814E-02  7.92263603E+00  7.13388047E+04   10   24    1       1
      8  2.26205762E+03  4.25000000E+03  6.27976209E-02  6.04442930E+00  7.14490078E+04   10   23    1       1
      8  2.50000000E+03  4.30403027E+03  5.60162254E-02  6.87607145E+00  7.37826406E+04   11   23    1       1
      8  2.75000000E+03  4.35790088E+03  4.99109328E-02  2.18112493E+00  7.67866406E+04   12   23    1       1
      8  3.00000000E+03  4.39529199E+03  4.47236709E-02  2.62286782E+00  7.94063281E+04   13   23    1       1
      8  3.25000000E+03  4.42573828E+03  4.02050875E-02  1.81674409E+00  8.19077031E+04   14   23    1       1
      8  3.50000000E+03  4.43569385E+03  3.61454934E-02  2.52597928E+00  8.41128125E+04   15   23    1       1
      9  6.56250000E+02  6.78125000E+03  1.00000005E-03  1.39110565E+01  0.00000000E+00    3   13    1       1
      9  6.60064941E+02  6.75000000E+03  8.40317633E-04  1.39086523E+01  3.78910742E+03    3   14    1       1
      9  6.82033386E+02  6.50000000E+03  3.90501751E-04  1.17057228E+01  2.28754414E+04    3   15    1       1
      9  6.92592102E+02  6.25000000E+03  2.65219627E-04  1.05778408E+01  3.30911289E+04    3   16    1       1
      9  6.93759888E+02  6.00000000E+03  2.05341566E-04  1.04127531E+01  3.98516484E+04    3   17    1       1
      9  6.92002502E+02  5.75000000E+03  1.70424202E-04  9.22738361E+00  4.50504531E+04    3   18    1       1
      9  6.93259583E+02  5.50000000E+03  1.47817744E-04  6.91875362E+00  4.94453789E+04    3   19    1       1
      9  6.98948486E+02  5.25000000E+03  1.31864392E-04  6.06608772E+00  5.30601758E+04    3   20    1       1
      9  7.19459656E+02  5.00000000E+03  1.19444812E-04  3.99712300E+00  5.64418945E+04    3   21    1       1
      9  7.50000000E+02  4.78381641E+03  1.10343542E-04  7.88053608E+00  5.86583203E+04    4   21    1       1
      9  7.54880249E+02  4.75000000E+03  1.08973545E-04  9.50472546E+00  5.89815742E+04    4   22    1       1
      9  8.02656555E+02  4.50000000E+03  1.00712117E-04  8.28255463E+00  6.10880195E+04    4   23    1       1
      9  9.93459045E+02  4.25000000E+03  9.27831643E-05  8.63701630E+00  6.31588359E+04    4   24    1       1
      9  1.00000000E+03  4.24426465E+03  9.25406857E-05  9.38669395E+00  6.32125742E+04    5   24    1       1
      9  1.25000000E+03  4.06812939E+03  8.63682217E-05  1.10131969E+01  6.45794531E+04    6   24    1       1
      9  1.50000000E+03  4.04245850E+03  8.17000764E-05  1.14110088E+01  6.55848594E+04    7   24    1       1
      9  1.75000000E+03  4.11393848E+03  7.63570206E-05  1.04519329E+01  6.67802734E+04    8   24    1       1
      9  2.00000000E+03  4.19831982E+03  7.04353151E-05  4.76771164E+00  6.87936797E+04    9   24    1       1
      9  2.12864453E+03  4.25000000E+03  6.73171307E-05  7.02326012E+00  6.97223203E+04    9   23    1       1
      9  2.25000000E+03  4.32563379E+03  6.34122989E-05  5.99264956E+00  7.10118125E+04   10   23    1       1
      9  2.50000000E+03  4.38932861E+03  5.62135792E-05  6.08619356E+00  7.34657656E+04   11   23    1       1
      9  2.75000000E+03  4.44930225E+03  5.00886345E-05  1.28400123E+00  7.64697656E+04   12   23    1       1
      9  3.00000000E+03  4.49190381E+03  4.48788305E-05  1.88564050E+00  7.90894531E+04   13   23    1       1
      9  3.05166553E+03  4.50000000E+03  4.39006180E-05  1.16481268E+00  7.96075781E+04   13   22    1       1
      9  3.25000000E+03  4.53062891E+03  4.04223319E-05  1.82352304E+00  8.14438984E+04   14   22    1       1
      9  3.50000000E+03  4.55141113E+03  3.65744454E-05  1.32974613E+00  8.36056172E+04   15   22    1       1
     10  6.56250000E+02  6.78125000E+03  3.33333343E-01  1.89148941E+01  0.00000000E+00    3   13    1       1
     10  6.60064941E+02  6.75000000E+03  2.80114412E-01  1.81135941E+01  3.78910742E+03    3   14    1       1
     10  6.82033386E+02  6.50000000E+03  1.30172193E-01  1.39399023E+01  2.28754414E+04    3   15    1       1
     10  6.92592102E+02  6.25000000E+03  8.84110406E-02  1.21866989E+01  3.30911289E+04    3   16    1       1
     10  6.93759888E+02  6.00000000E+03  6.84638023E-02  1.16602068E+01  3.98516484E+04    3   17    1       1
     10  6.92002502E+02  5.75000000E+03  5.68147153E-02  1.03187284E+01  4.50504531E+04    3   18    1       1
     10  6.93259583E+02  5.50000000E+03  4.92749549E-02  7.96691751E+00  4.94453789E+04    3   19    1       1
     10  6.98948486E+02  5.25000000E+03  4.39618602E-02  7.02592993E+00  5.30601758E+04    3   20    1       1
     10  7.19459656E+02  5.00000000E+03  3.98222618E-02  4.93551111E+00  5.64418945E+04    3   21    1       1
     10  7.50000000E+02  4.78381641E+03  3.67924795E-02  8.59069538E+00  5.86583203E+04    4   21    1       1
     10  7.54880249E+02  4.75000000E+03  3.63301300E-02  1.01447220E+01  5.89815742E+04    4   22    1       1
     10  8.02656555E+02  4.50000000E+03  3.35687213E-02  8.89896202E+00  6.10880195E+04    4   23    1       1
     10  9.93459045E+02  4.25000000E+03  3.09210438E-02  9.17410946E+00  6.31588359E+04    4   24    1       1
     10  1.00000000E+03  4.24426465E+03  3.08500063E-02  9.88338566E+00  6.32125742E+04    5   24    1       1
     10  1.25000000E+03  4.06812939E+03  2.88168434E-02  1.14113340E+01  6.45794531E+04    6   24    1       1
     10  1.50000000E+03  4.04245850E+03  2.72400267E-02  1.17464113E+01  6.55848594E+04    7   24    1       1
     10  1.75000000E+03  4.11393848E+03  2.54583526E-02  1.07619715E+01  6.67802734E+04    8   24    1       1
     10  2.00000000E+03  4.19831982E+03  2.34798808E-02  5.17040586E+00  6.87936797E+04    9   24    1       1
     10  2.12864453E+03  4.25000000E+03  2.24468540E-02  7.34252787E+00  6.97223203E+04    9   23    1       1
     10  2.25000000E+03  4.32563379E+03  2.11495478E-02  6.30834246E+00  7.10118125E+04   10   23    1       1
     10  2.50000000E+03  4.38932861E+03  1.87548306E-02  6.35012531E+00  7.34657656E+04   11   23    1       1
     10  2.75000000E+03  4.44930225E+03  1.67107135E-02  1.58376837E+00  7.64697656E+04   12   23    1       1
     10  3.00000000E+03  4.49190381E+03  1.49739608E-02  2.13197947E+00  7.90894531E+04   13   23    1       1
     10  3.05166553E+03  4.50000000E+03  1.46472305E-02  1.40186667E+00  7.96075781E+04   13   22    1       1
     10  3.25000000E+03  4.53062891E+03  1.34892715E-02  2.03079629E+00  8.14438984E+04   14   22    1       1
     10  3.50000000E+03  4.55141113E+03  1.22047272E-02  1.51143038E+00  8.36056172E+04   15   22    1       1
     11  6.56250000E+02  6.78125000E+03  6.66666687E-01  2.39337902E+01  0.00000000E+00    3   13    1       1
     11  6.60064941E+02  6.75000000E+03  5.60228944E-01  2.23311901E+01  3.78910742E+03    3   14    1       1
     11  6.82033386E+02  6.50000000E+03  2.60344446E-01  1.61808052E+01  2.28754414E+04    3   15    1       1
     11  6.92592102E+02  6.25000000E+03  1.76822141E-01  1.38003988E+01  3.30911289E+04    3   16    1       1
     11  6.93759888E+02  6.00000000E+03  1.36927709E-01  1.29114151E+01  3.98516484E+04    3   17    1       1
     11  6.92002502E+02  5.75000000E+03  1.13629527E-01  1.14133587E+01  4.50504531E+04    3   18    1       1
     11  6.93259583E+02  5.50000000E+03  9.85499546E-02  9.01823616E+00  4.94453789E+04    3   19    1       1