# MODFLOW2005 Basic Package
#MODFLOW Data Set Created by Groundwater Vistas
#   
FREE SHOWPROGRESS 
         1         1(25I3)                      -1     IBOUND Layer   1
  1  1  1  1  1  1  1  1  1  1  1  1  1  1  1  1  1  1  1  1
  1  1  1  1  1  1  1  1  1  1  1  1  1  1  1  1  1  1  1  1
  1  1  1  1  1  1  1  1  1  1  1  1  1  1  1  1  1  1  1  1
  1  1  1  1  1  1  1  1  1  1  1  1  1  1  1  1  1  1  1  1
  1  1  1  1  1  1  1  1  1  1  1  1  1  1  1  1  1  1  1  1
  1  1  1  1  1  1  1  1  1  1  1  1  1  1  1  1  1  1  1  1
  1  1  1  1  1  1  1  1  1  1  1  1  1  1  1  1  1  1  1  1
  1  1  1  1  1  1  1  1  1  1  1  1  1  1  1  1  1  1  1  1
  1  1  1  1  0  0  0  1  1  1  1  1  1  1  1  1  1  1  1  1
  1  1  1  1  0  0  0  0  1  1  1  1  1  1  1  1  1  1  1  1
  1  1  1  1  0  0  0  0  1  1  1  1  1  1  1  1  1  1  1  1
  1  1  1  1  0  0  0  0  1  1  1  1  1  1  1  1  1  1  1  1
  1  1  1  1  0  0  0  0  1  1  1  1  1  1  1  1  1  1  1  1
  1  1  1  1  0  0  0  0  1  1  1  1  1  1  1  1  1  1  1  1
  1  1  1  1  0  0  0  0  1  1  1  1  1  1  1  1  1  1  1  1
  1  1  1  1  0  0  0  0  1  1  1  1  1  1  1  1  1  1  1  1
  1  1  1  1  0  0  0  0  1  1  1  1  1  1  1  1  1  1  1  1
  1  1  1  1  0  0  0  0  1  1  1  1  1  1  1  1  1  1  1  1
  1  1  1  1  0  0  0  0  1  1  1  1  1  1  1  1  1  1  1  1
  1  1  1  1  0  0  0  0  1  1  1  1  1  1  1  1  1  1  1  1
  1  1  1  1  0  0  0  0  1  1  1  1  1  1  1  1  1  1  1  1
  1  1  1  1  0  0  1  1  1  1  1  1  1  1  1  1  1  1  1  1
  1  1  1  1  1  0  1  1  1  1  1  1  1  1  1  1  1  1  1  1
  1  1  1  1  1  1  1  1  1  1  1  1  1  1  1  1  1  1  1  1
  1  1  1  1  1  1  1  1  1  1  1  1  1  1  1  1  1  1  1  1
  1  1  1  1  1  1  1  1  1  1  1  1  1  1  1  1  1  1  1  1
  1  1  1  1  1  1  1  1  1  1  1  1  1  1  1  1  1  1  1  1
  1  1  1  1  1  1  1  1  1  1  1  1  1  1  1  1  1  1  1  1
  1  1  1  1  1  1  1  1  1  1  1  1  1  1  1  1  1  1  1  1
  1  1  1  1  1  1  1  1  1  1  1  1  1  1  1  1  1  1  1  1
  1  1  1  1  1  1  1  1  1  1  1  1  1  1  1  1  1  1  1  1
  1  1  1  1  1  1  1  1  1  1  1  1  1  1  1  1  1  1  1  1
  0  1  1  1  1  1  1  1  1  1  1  1  1  1  1  1  1  1  1  1
  0  0  1  1  1  1  1  1  1  1  1  1  1  1  1  1  1  1  1  1
  0  0  0  1  1  1  1  1  1  1  1  1  1  1  1  1  1  1  1  1
  0  0  0  0  1  1  1  1  1  1  1  1  1  1  1  1  1  1  1  0
  0  0  0  0  1  1  1  1  1  1  1  1  1  1  1  1  1  1  1  0
  0  0  0  0  0  1  1  1  1  1  1  1  1  1  1  1  1  1  0  0
  0  0  0  0  0  1  1  1  1  1  1  1  1  1  1  1  1  0  0  0
  0  0  0  0  0  1  1  1  1  1  1  1  1  1  1  0  0  0  0  0
 999.000000
constant 45                                           STARTING HEADS Layer   1
