# MODFLOW-2005 CHD Package
 10 50
 10                Stress Period 1
  1 40  6  16.9  16.9
  1 40  7  16.4  16.4
  1 40  8  16.1  16.1
  1 40  9  15.6  15.6
  1 40 10  15.1  15.1
  1 40 11  14.0  14.0
  1 40 12  13.0  13.0
  1 40 13  12.5  12.5
  1 40 14  12.0  12.0
  1 40 15  11.4  11.4
 -1 0              Stress Period 2
