# MODFLOW2000 River Package
PARAMETER  0  0
 40 50   AUX  IFACE
 40 0                      Stress Period 1
 1  1 15 20.100000 4.320000e+003 20.000000 0
 1  2 15 19.870000 4.320000e+003 19.750000 0
 1  3 15 19.650000 4.320000e+003 19.500000 0
 1  4 15 19.420000 4.320000e+003 19.250000 0
 1  5 15 19.190000 4.320000e+003 19.000000 0
 1  6 15 18.970000 4.320000e+003 18.750000 0
 1  7 15 18.740000 4.320000e+003 18.500000 0
 1  8 15 18.510000 4.320000e+003 18.250000 0
 1  9 15 18.280000 4.320000e+003 18.000000 0
 1 10 15 19.060000 4.320000e+003 17.750000 0
 1 11 15 17.830000 4.320000e+003 17.500000 0
 1 12 15 17.600000 4.320000e+003 17.250000 0
 1 13 15 17.380000 4.320000e+003 17.000000 0
 1 14 15 17.150000 4.320000e+003 16.750000 0
 1 15 15 16.920000 4.320000e+003 16.500000 0
 1 16 15 16.700000 4.320000e+003 16.250000 0
 1 17 15 16.470000 4.320000e+003 16.000000 0
 1 18 15 16.240000 4.320000e+003 15.750000 0
 1 19 15 16.020000 4.320000e+003 15.500000 0
 1 20 15 15.790000 4.320000e+003 15.250000 0
 1 21 15 15.560000 4.320000e+003 15.000000 0
 1 22 15 15.330000 4.320000e+003 14.750000 0
 1 23 15 15.110000 4.320000e+003 14.500000 0
 1 24 15 14.880000 4.320000e+003 14.250000 0
 1 25 15 14.650000 4.320000e+003 14.000000 0
 1 26 15 14.430000 4.320000e+003 13.750000 0
 1 27 15 14.200000 4.320000e+003 13.500000 0
 1 28 15 13.970000 4.320000e+003 13.250000 0
 1 29 15 13.750000 4.320000e+003 13.000000 0
 1 30 15 13.520000 4.320000e+003 12.750000 0
 1 31 15 13.290000 4.320000e+003 12.500000 0
 1 32 15 13.070000 4.320000e+003 12.250000 0
 1 33 15 12.840000 4.320000e+003 12.000000 0
 1 34 15 12.610000 4.320000e+003 11.750000 0
 1 35 15 12.380000 4.320000e+003 11.500000 0
 1 36 15 12.160000 4.320000e+003 11.250000 0
 1 37 15 11.930000 4.320000e+003 11.000000 0
 1 38 15 11.700000 4.320000e+003 10.750000 0
 1 39 15 11.480000 4.320000e+003 10.500000 0
 1 40 15 11.250000 4.320000e+003 10.250000 0
-1                                           STRESS PERIOD 2
