# MODFLOW2000 Recharge Package
PARAMETER  0
         3        50
         1         1
         01.3824e-04(10e12.4)                   -1     RECHARGE
