# MODFLOW2000 River Package
PARAMETER  0  0
        39        50   AUX  IFACE
        39         0                      Stress Period 1
         1         1        15 20.100000 4320.0000   20.0000         0
         1         2        15 19.870001 4320.0000   19.7500         0
         1         3        15 19.650000 4320.0000   19.5000         0
         1         4        15 19.420000 4320.0000   19.2500         0
         1         5        15 19.190001 4320.0000   19.0000         0
         1         6        15 18.969999 4320.0000   18.7500         0
         1         7        15 18.740000 4320.0000   18.5000         0
         1         8        15 18.510000 4320.0000   18.2500         0
         1         9        15 18.280001 4320.0000   18.0000         0
         1        10        15 19.059999 4320.0000   17.7500         0
         1        11        15 17.830000 4320.0000   17.5000         0
         1        12        15 17.600000 4320.0000   17.2500         0
         1        13        15 17.379999 4320.0000   17.0000         0
         1        14        15 17.150000 4320.0000   16.7500         0
         1        15        15 16.920000 4320.0000   16.5000         0
         1        16        15 16.700001 4320.0000   16.2500         0
         1        17        15 16.469999 4320.0000   16.0000         0
         1        18        15 16.240000 4320.0000   15.7500         0
         1        19        15 16.020000 4320.0000   15.5000         0
         1        20        15 15.790000 4320.0000   15.2500         0
         1        21        15 15.560000 4320.0000   15.0000         0
         1        22        15 15.330000 4320.0000   14.7500         0
         1        23        15 15.110000 4320.0000   14.5000         0
         1        24        15 14.880000 4320.0000   14.2500         0
         1        25        15 14.650000 4320.0000   14.0000         0
         1        26        15 14.430000 4320.0000   13.7500         0
         1        27        15 14.200000 4320.0000   13.5000         0
         1        28        15 13.970000 4320.0000   13.2500         0
         1        29        15 13.750000 4320.0000   13.0000         0
         1        30        15 13.520000 4320.0000   12.7500         0
         1        31        15 13.290000 4320.0000   12.5000         0
         1        32        15 13.070000 4320.0000   12.2500         0
         1        33        15 12.840000 4320.0000   12.0000         0
         1        34        15 12.610000 4320.0000   11.7500         0
         1        35        15 12.380000 4320.0000   11.5000         0
         1        36        15 12.160000 4320.0000   11.2500         0
         1        37        15 11.930000 4320.0000   11.0000         0
         1        38        15 11.700000 4320.0000   10.7500         0
         1        39        15 11.480000 4320.0000   10.5000         0
