# MODFLOW2000 Constant-Head Boundary Package (CHD)
        10
        10         0
         1        40         6 16.900000 16.900000
         1        40         7 16.400000 16.400000
         1        40         8 16.100000 16.100000
         1        40         9 15.600000 15.600000
         1        40        10 15.100000 15.100000
         1        40        11 14.000000 14.000000
         1        40        12 13.000000 13.000000
         1        40        13 12.500000 12.500000
         1        40        14 12.000000 12.000000
         1        40        15 11.400000 11.400000
