# MODFLOW2000 Well Package
         6        50   AUX IFACE
         6         0               Stress Period 1
         1         9       16 -708.47998         0
         1        11       13 -354.23999         0
         1        20       14 -336.95999         0
         1        26       10 -71.711998         0
         1        29        6 -62.208000         0
         1        34       12 -371.51999         0
