# MODFLOW2000 Layer Property Flow (LPF) Package
        50  -1.000000e+030         0
  1
  0
  1.000000e+000
 0
 0
        11   1.00000(10e12.4)                   -1     HYDRAULIC CONDUCTIVITY Layer   1
  1.2544e+01  1.2211e+01  1.2467e+01  9.5861e+00  9.7373e+00  1.0259e+01  9.1014e+00  9.9239e+00  1.0494e+01  8.9908e+00
  7.9920e+00  8.2401e+00  7.8601e+00  1.0049e+01  9.7027e+00  9.1636e+00  9.8323e+00  9.8954e+00  9.6846e+00  9.5662e+00
  1.2849e+01  1.2788e+01  9.0297e+00  1.0008e+01  9.1143e+00  9.5783e+00  9.1437e+00  9.7744e+00  1.0296e+01  8.5163e+00
  7.9447e+00  8.7091e+00  7.9814e+00  9.0634e+00  1.0303e+01  9.2941e+00  7.0516e+00  9.8401e+00  1.0119e+01  8.7938e+00
  1.2196e+01  1.3745e+01  9.4090e+00  9.7364e+00  9.9835e+00  9.5688e+00  9.4530e+00  1.0016e+01  8.9700e+00  7.7273e+00
  7.4689e+00  7.5673e+00  7.4198e+00  1.0295e+01  9.0997e+00  9.8237e+00  7.1127e+00  9.2154e+00  9.5005e+00  8.5998e+00
  9.2845e+00  8.1010e+00  9.9827e+00  1.0232e+01  9.7597e+00  9.8211e+00  9.3113e+00  9.3165e+00  9.5360e+00  7.7997e+00
  7.3748e+00  8.1650e+00  8.0728e+00  8.7108e+00  8.5189e+00  7.0796e+00  7.3475e+00  9.8047e+00  9.1688e+00  9.2966e+00
  9.3321e+00  8.2879e+00  9.5913e+00  9.7986e+00  1.0517e+01  9.6699e+00  7.6869e+00  7.9205e+00  8.3409e+00  7.6201e+00
  8.2865e+00  8.2738e+00  7.6276e+00  9.4677e+00  9.0634e+00  6.6461e+00  7.5425e+00  8.6875e+00  9.8315e+00  8.6581e+00
  9.5507e+00  7.1794e+00  8.5126e+00  7.9969e+00  7.0412e+00  7.9295e+00  7.5994e+00  7.9461e+00  8.1486e+00  7.4746e+00
  7.5958e+00  7.9082e+00  8.1742e+00  9.5351e+00  8.5457e+00  7.4993e+00  8.1508e+00  9.4729e+00  9.4021e+00  8.7463e+00
  9.7623e+00  7.9735e+00  8.0223e+00  7.0551e+00  6.8578e+00  7.7201e+00  7.5483e+00  7.5409e+00  7.8442e+00  8.0045e+00
  6.2194e+00  6.9922e+00  7.6157e+00  7.6014e+00  6.9701e+00  8.1590e+00  8.2894e+00  7.7185e+00  7.6570e+00  9.9153e+00
  9.4211e+00  7.7703e+00  8.1416e+00  9.8159e+00  9.4392e+00  9.3943e+00  9.7200e+00  6.9130e+00  7.5129e+00  7.4645e+00
  5.8261e+00  7.2911e+00  8.4052e+00  7.8741e+00  7.9218e+00  8.6062e+00  7.0030e+00  7.2835e+00  8.4461e+00  9.3614e+00
  1.0217e+01  7.2232e+00  7.6370e+00  1.0187e+01  0.0000e+00  0.0000e+00  0.0000e+00  9.3450e+00  7.7975e+00  7.3162e+00
  5.5585e+00  7.4344e+00  7.4449e+00  7.8306e+00  7.8747e+00  7.7281e+00  7.2864e+00  8.4033e+00  7.8323e+00  1.0136e+01
  9.3260e+00  8.1947e+00  7.8823e+00  9.3519e+00  0.0000e+00  0.0000e+00  0.0000e+00  0.0000e+00  1.0038e+01  7.3113e+00
  6.4523e+00  7.3337e+00  7.1640e+00  7.5190e+00  7.9396e+00  8.0736e+00  8.6754e+00  7.6796e+00  8.1220e+00  9.8548e+00
  1.0093e+01  7.2857e+00  7.2782e+00  8.7635e+00  0.0000e+00  0.0000e+00  0.0000e+00  0.0000e+00  9.0012e+00  7.8488e+00
  5.2550e+00  5.5248e+00  5.9663e+00  7.6003e+00  7.9625e+00  6.9371e+00  8.0480e+00  6.6632e+00  8.0197e+00  7.2273e+00
  1.0126e+01  8.2531e+00  7.6643e+00  8.7178e+00  0.0000e+00  0.0000e+00  0.0000e+00  0.0000e+00  9.4211e+00  7.7780e+00
  6.3497e+00  6.5184e+00  6.0223e+00  6.9623e+00  8.0374e+00  5.3923e+00  9.0210e+00  7.0530e+00  7.9455e+00  8.9217e+00
  9.2543e+00  8.3597e+00  7.4445e+00  9.2664e+00  0.0000e+00  0.0000e+00  0.0000e+00  0.0000e+00  9.5723e+00  7.7735e+00
  5.2817e+00  8.0027e+00  7.2077e+00  8.1958e+00  7.8903e+00  7.6705e+00  7.3350e+00  7.9227e+00  6.9829e+00  7.3858e+00
  9.3744e+00  7.5818e+00  7.0297e+00  1.0212e+01  0.0000e+00  0.0000e+00  0.0000e+00  0.0000e+00  8.9675e+00  7.5761e+00
  6.0785e+00  5.9548e+00  5.7041e+00  7.9020e+00  8.6252e+00  6.7842e+00  8.3900e+00  7.5107e+00  8.5939e+00  7.5138e+00
  9.5135e+00  7.4137e+00  7.5313e+00  1.0419e+01  0.0000e+00  0.0000e+00  0.0000e+00  0.0000e+00  7.6566e+00  7.3224e+00
  4.8476e+00  6.4992e+00  6.1886e+00  6.0165e+00  6.0219e+00  6.3236e+00  6.0494e+00  7.1685e+00  7.6823e+00  1.0185e+01
  8.9303e+00  7.9423e+00  7.9892e+00  9.0962e+00  0.0000e+00  0.0000e+00  0.0000e+00  0.0000e+00  7.6391e+00  5.8145e+00
  4.1007e+00  5.6787e+00  6.2887e+00  6.0438e+00  6.2155e+00  5.8602e+00  6.6420e+00  8.1681e+00  8.0959e+00  9.1048e+00
  9.9688e+00  7.9078e+00  7.9192e+00  9.7019e+00  0.0000e+00  0.0000e+00  0.0000e+00  0.0000e+00  6.9631e+00  6.3214e+00
  4.2040e+00  6.5152e+00  6.1794e+00  6.2633e+00  5.8082e+00  5.4059e+00  5.6451e+00  7.7389e+00  7.8087e+00  1.0235e+01
  9.4090e+00  7.2431e+00  8.2331e+00  8.9001e+00  0.0000e+00  0.0000e+00  0.0000e+00  0.0000e+00  7.1322e+00  6.6809e+00
  4.5468e+00  4.9104e+00  6.3113e+00  6.2071e+00  6.3672e+00  6.6297e+00  6.2798e+00  7.4083e+00  7.6961e+00  9.7312e+00
  9.4314e+00  8.0327e+00  8.1846e+00  8.9744e+00  0.0000e+00  0.0000e+00  0.0000e+00  0.0000e+00  7.0496e+00  5.6064e+00
  4.7121e+00  3.5103e+00  5.1627e+00  6.1096e+00  6.5214e+00  6.5629e+00  5.8750e+00  7.6119e+00  8.7013e+00  9.6284e+00
  9.4789e+00  7.9623e+00  7.2389e+00  9.6284e+00  0.0000e+00  0.0000e+00  0.0000e+00  0.0000e+00  8.4539e+00  6.4124e+00
  4.1274e+00  3.8854e+00  5.1182e+00  6.0582e+00  6.0427e+00  6.5591e+00  5.9553e+00  7.5861e+00  7.5362e+00  9.6751e+00
  9.9904e+00  7.2818e+00  7.8913e+00  1.0545e+01  0.0000e+00  0.0000e+00  0.0000e+00  0.0000e+00  7.7509e+00  6.0078e+00
  4.3181e+00  4.4920e+00  3.3019e+00  6.8366e+00  6.0455e+00  5.9548e+00  5.8075e+00  6.9365e+00  7.1586e+00  9.4115e+00
  9.5619e+00  7.8433e+00  8.3226e+00  1.0063e+01  0.0000e+00  0.0000e+00  9.7744e+00  9.5403e+00  7.6973e+00  6.1432e+00
  4.4271e+00  3.5673e+00  4.2057e+00  5.9492e+00  6.2643e+00  5.7027e+00  6.2045e+00  8.1482e+00  7.6206e+00  8.9217e+00
  9.1912e+00  7.8730e+00  7.1552e+00  9.9308e+00  9.4254e+00  0.0000e+00  9.7986e+00  7.2515e+00  7.4621e+00  5.8178e+00
  4.1295e+00  3.9052e+00  3.3701e+00  6.6197e+00  6.1172e+00  6.3640e+00  4.6129e+00  6.7046e+00  7.4997e+00  9.4591e+00
  9.8099e+00  8.2392e+00  7.5416e+00  7.6373e+00  8.8802e+00  9.5040e+00  8.4133e+00  7.3196e+00  8.5684e+00  6.2309e+00
  4.3762e+00  4.5377e+00  4.0597e+00  6.2896e+00  6.4252e+00  4.4563e+00  6.5314e+00  5.9926e+00  8.2197e+00  7.7108e+00
  9.7839e+00  7.9547e+00  7.9225e+00  8.0044e+00  7.9356e+00  7.8557e+00  7.7037e+00  7.1835e+00  5.6309e+00  6.6817e+00
  4.5515e+00  4.4429e+00  3.5910e+00  5.8208e+00  6.5995e+00  4.1160e+00  6.1434e+00  6.5502e+00  8.0819e+00  8.1299e+00
  9.8686e+00  7.8838e+00  8.2874e+00  5.8196e+00  7.8777e+00  7.3020e+00  7.7096e+00  8.2047e+00  6.0036e+00  6.0495e+00
  4.1582e+00  4.2745e+00  4.1127e+00  6.7086e+00  6.5207e+00  4.1476e+00  6.6782e+00  6.8237e+00  8.1571e+00  7.6419e+00
  1.0152e+01  7.2394e+00  8.5614e+00  7.9200e+00  5.7365e+00  7.5559e+00  7.7680e+00  5.6220e+00  5.9397e+00  4.5097e+00
  1.4850e+00  4.6265e+00  3.9856e+00  4.2379e+00  4.3072e+00  3.9041e+00  5.3464e+00  5.4151e+00  6.3056e+00  8.2004e+00
  8.7445e+00  9.2871e+00  7.2459e+00  7.6664e+00  7.9763e+00  7.1745e+00  5.2763e+00  4.7322e+00  5.9584e+00  3.4122e+00
  3.4535e+00  4.2186e+00  4.3709e+00  4.0464e+00  4.2332e+00  3.9137e+00  4.5103e+00  6.0722e+00  6.2079e+00  6.8306e+00
  9.0539e+00  9.5455e+00  7.8563e+00  7.8138e+00  8.3538e+00  6.3542e+00  4.8866e+00  1.1483e+00  6.0108e+00  5.2788e+00
  2.8096e+00  4.7025e+00  4.5138e+00  3.7049e+00  4.6894e+00  2.3265e+00  4.0415e+00  4.1911e+00  6.3818e+00  6.6534e+00
  8.8396e+00  1.0079e+01  8.4166e+00  8.4515e+00  8.6318e+00  6.5766e+00  1.3740e+00  1.6098e+00  1.3483e+00  2.8609e+00
  2.1531e+00  4.3050e+00  4.7063e+00  4.0622e+00  4.3882e+00  2.3489e+00  3.2438e+00  4.3479e+00  4.4705e+00  5.2157e+00
  9.5740e+00  7.3658e+00  7.3577e+00  7.9637e+00  6.2695e+00  3.3881e+00  2.5564e+00  1.7003e+00  2.8400e+00  2.1364e+00
  2.7023e+00  4.1760e+00  4.7519e+00  4.3208e+00  2.8816e+00  1.3995e+00  2.2868e+00  1.8069e+00  3.9988e+00  4.1690e+00
  9.4409e+00  7.4495e+00  7.5208e+00  7.8290e+00  8.3088e+00  5.7280e+00  7.5259e-01  2.3941e+00  2.4790e+00  3.0923e+00
  2.3027e+00  2.9295e+00  4.7364e+00  4.6161e+00  1.5870e+00  1.6054e+00  2.1133e+00  1.8786e+00  4.4794e+00  4.9732e+00
  0.0000e+00  7.8769e+00  7.6301e+00  7.7468e+00  7.6194e+00  7.4298e+00  5.9580e+00  4.1262e+00  3.4694e-01  2.2926e+00
  2.1267e+00  1.7356e+00  1.5953e+00  5.1821e+00  4.3478e+00  3.9044e+00  2.2295e+00  3.9484e+00  4.1222e+00  6.4800e+00
  0.0000e+00  0.0000e+00  7.0347e+00  7.7360e+00  8.4352e+00  5.6636e+00  6.1598e+00  4.5552e+00  3.4031e+00  3.2971e+00
  2.1519e+00  2.1917e+00  1.5327e+00  4.4227e+00  3.7879e+00  4.3978e+00  3.6785e+00  4.9564e+00  5.7415e+00  7.8134e+00
  0.0000e+00  0.0000e+00  0.0000e+00  5.7182e+00  6.6049e+00  5.5852e+00  5.2680e+00  6.6867e+00  3.4692e+00  2.2726e+00
  1.9186e+00  1.2421e+00  3.3538e+00  3.9557e+00  4.2253e+00  4.6616e+00  4.2819e+00  4.0103e+00  6.6307e+00  7.6496e+00
  0.0000e+00  0.0000e+00  0.0000e+00  0.0000e+00  6.4357e+00  6.4080e+00  6.1579e+00  4.5245e+00  4.2212e+00  1.3726e+00
  2.1997e+00  1.8258e+00  2.3258e+00  4.6437e+00  4.2925e+00  4.0453e+00  4.0712e+00  5.7663e+00  8.7558e+00  0.0000e+00
  0.0000e+00  0.0000e+00  0.0000e+00  0.0000e+00  7.5343e+00  6.1987e+00  5.5933e+00  4.6774e+00  4.4375e+00  2.2364e+00
  2.2703e+00  2.5660e+00  1.7566e+00  4.4628e+00  3.5373e+00  4.4022e+00  6.4227e+00  6.1448e+00  7.6075e+00  0.0000e+00
  0.0000e+00  0.0000e+00  0.0000e+00  0.0000e+00  0.0000e+00  6.4310e+00  5.9599e+00  4.1312e+00  5.3724e+00  1.3743e+00
  1.7618e+00  2.3486e+00  1.4918e+00  1.7999e+00  2.4664e+00  4.7121e+00  4.3845e+00  5.4511e+00  0.0000e+00  0.0000e+00
  0.0000e+00  0.0000e+00  0.0000e+00  0.0000e+00  0.0000e+00  5.9438e+00  6.8043e+00  5.6455e+00  4.5430e+00  2.0144e+00
  2.1075e+00  2.5272e+00  2.3782e+00  1.5524e+00  2.8219e+00  3.6665e+00  5.4799e+00  0.0000e+00  0.0000e+00  0.0000e+00
  0.0000e+00  0.0000e+00  0.0000e+00  0.0000e+00  0.0000e+00  8.1865e+00  4.5922e+00  4.4139e+00  2.2801e+00  2.4732e+00
  2.0638e+00  1.3910e+00  1.5461e+00  1.3122e+00  3.9885e+00  0.0000e+00  0.0000e+00  0.0000e+00  0.0000e+00  0.0000e+00
        11   1.00000(10e12.4)                   -1     VERTICAL HYDRAULIC CONDUCTIVITY Layer   1
  1.2544e+01  1.2211e+01  1.2467e+01  9.5861e+00  9.7373e+00  1.0259e+01  9.1014e+00  9.9239e+00  1.0494e+01  8.9908e+00
  7.9920e+00  8.2401e+00  7.8601e+00  1.0049e+01  9.7027e+00  9.1636e+00  9.8323e+00  9.8954e+00  9.6846e+00  9.5662e+00
  1.2849e+01  1.2788e+01  9.0297e+00  1.0008e+01  9.1143e+00  9.5783e+00  9.1437e+00  9.7744e+00  1.0296e+01  8.5163e+00
  7.9447e+00  8.7091e+00  7.9814e+00  9.0634e+00  1.0303e+01  9.2941e+00  7.0516e+00  9.8401e+00  1.0119e+01  8.7938e+00
  1.2196e+01  1.3745e+01  9.4090e+00  9.7364e+00  9.9835e+00  9.5688e+00  9.4530e+00  1.0016e+01  8.9700e+00  7.7273e+00
  7.4689e+00  7.5673e+00  7.4198e+00  1.0295e+01  9.0997e+00  9.8237e+00  7.1127e+00  9.2154e+00  9.5005e+00  8.5998e+00
  9.2845e+00  8.1010e+00  9.9827e+00  1.0232e+01  9.7597e+00  9.8211e+00  9.3113e+00  9.3165e+00  9.5360e+00  7.7997e+00
  7.3748e+00  8.1650e+00  8.0728e+00  8.7108e+00  8.5189e+00  7.0796e+00  7.3475e+00  9.8047e+00  9.1688e+00  9.2966e+00
  9.3321e+00  8.2879e+00  9.5913e+00  9.7986e+00  1.0517e+01  9.6699e+00  7.6869e+00  7.9205e+00  8.3409e+00  7.6201e+00
  8.2865e+00  8.2738e+00  7.6276e+00  9.4677e+00  9.0634e+00  6.6461e+00  7.5425e+00  8.6875e+00  9.8315e+00  8.6581e+00
  9.5507e+00  7.1794e+00  8.5126e+00  7.9969e+00  7.0412e+00  7.9295e+00  7.5994e+00  7.9461e+00  8.1486e+00  7.4746e+00
  7.5958e+00  7.9082e+00  8.1742e+00  9.5351e+00  8.5457e+00  7.4993e+00  8.1508e+00  9.4729e+00  9.4021e+00  8.7463e+00
  9.7623e+00  7.9735e+00  8.0223e+00  7.0551e+00  6.8578e+00  7.7201e+00  7.5483e+00  7.5409e+00  7.8442e+00  8.0045e+00
  6.2194e+00  6.9922e+00  7.6157e+00  7.6014e+00  6.9701e+00  8.1590e+00  8.2894e+00  7.7185e+00  7.6570e+00  9.9153e+00
  9.4211e+00  7.7703e+00  8.1416e+00  9.8159e+00  9.4392e+00  9.3943e+00  9.7200e+00  6.9130e+00  7.5129e+00  7.4645e+00
  5.8261e+00  7.2911e+00  8.4052e+00  7.8741e+00  7.9218e+00  8.6062e+00  7.0030e+00  7.2835e+00  8.4461e+00  9.3614e+00
  1.0217e+01  7.2232e+00  7.6370e+00  1.0187e+01  0.0000e+00  0.0000e+00  0.0000e+00  9.3450e+00  7.7975e+00  7.3162e+00
  5.5585e+00  7.4344e+00  7.4449e+00  7.8306e+00  7.8747e+00  7.7281e+00  7.2864e+00  8.4033e+00  7.8323e+00  1.0136e+01
  9.3260e+00  8.1947e+00  7.8823e+00  9.3519e+00  0.0000e+00  0.0000e+00  0.0000e+00  0.0000e+00  1.0038e+01  7.3113e+00
  6.4523e+00  7.3337e+00  7.1640e+00  7.5190e+00  7.9396e+00  8.0736e+00  8.6754e+00  7.6796e+00  8.1220e+00  9.8548e+00
  1.0093e+01  7.2857e+00  7.2782e+00  8.7635e+00  0.0000e+00  0.0000e+00  0.0000e+00  0.0000e+00  9.0012e+00  7.8488e+00
  5.2550e+00  5.5248e+00  5.9663e+00  7.6003e+00  7.9625e+00  6.9371e+00  8.0480e+00  6.6632e+00  8.0197e+00  7.2273e+00
  1.0126e+01  8.2531e+00  7.6643e+00  8.7178e+00  0.0000e+00  0.0000e+00  0.0000e+00  0.0000e+00  9.4211e+00  7.7780e+00
  6.3497e+00  6.5184e+00  6.0223e+00  6.9623e+00  8.0374e+00  5.3923e+00  9.0210e+00  7.0530e+00  7.9455e+00  8.9217e+00
  9.2543e+00  8.3597e+00  7.4445e+00  9.2664e+00  0.0000e+00  0.0000e+00  0.0000e+00  0.0000e+00  9.5723e+00  7.7735e+00
  5.2817e+00  8.0027e+00  7.2077e+00  8.1958e+00  7.8903e+00  7.6705e+00  7.3350e+00  7.9227e+00  6.9829e+00  7.3858e+00
  9.3744e+00  7.5818e+00  7.0297e+00  1.0212e+01  0.0000e+00  0.0000e+00  0.0000e+00  0.0000e+00  8.9675e+00  7.5761e+00
  6.0785e+00  5.9548e+00  5.7041e+00  7.9020e+00  8.6252e+00  6.7842e+00  8.3900e+00  7.5107e+00  8.5939e+00  7.5138e+00
  9.5135e+00  7.4137e+00  7.5313e+00  1.0419e+01  0.0000e+00  0.0000e+00  0.0000e+00  0.0000e+00  7.6566e+00  7.3224e+00
  4.8476e+00  6.4992e+00  6.1886e+00  6.0165e+00  6.0219e+00  6.3236e+00  6.0494e+00  7.1685e+00  7.6823e+00  1.0185e+01
  8.9303e+00  7.9423e+00  7.9892e+00  9.0962e+00  0.0000e+00  0.0000e+00  0.0000e+00  0.0000e+00  7.6391e+00  5.8145e+00
  4.1007e+00  5.6787e+00  6.2887e+00  6.0438e+00  6.2155e+00  5.8602e+00  6.6420e+00  8.1681e+00  8.0959e+00  9.1048e+00
  9.9688e+00  7.9078e+00  7.9192e+00  9.7019e+00  0.0000e+00  0.0000e+00  0.0000e+00  0.0000e+00  6.9631e+00  6.3214e+00
  4.2040e+00  6.5152e+00  6.1794e+00  6.2633e+00  5.8082e+00  5.4059e+00  5.6451e+00  7.7389e+00  7.8087e+00  1.0235e+01
  9.4090e+00  7.2431e+00  8.2331e+00  8.9001e+00  0.0000e+00  0.0000e+00  0.0000e+00  0.0000e+00  7.1322e+00  6.6809e+00
  4.5468e+00  4.9104e+00  6.3113e+00  6.2071e+00  6.3672e+00  6.6297e+00  6.2798e+00  7.4083e+00  7.6961e+00  9.7312e+00
  9.4314e+00  8.0327e+00  8.1846e+00  8.9744e+00  0.0000e+00  0.0000e+00  0.0000e+00  0.0000e+00  7.0496e+00  5.6064e+00
  4.7121e+00  3.5103e+00  5.1627e+00  6.1096e+00  6.5214e+00  6.5629e+00  5.8750e+00  7.6119e+00  8.7013e+00  9.6284e+00
  9.4789e+00  7.9623e+00  7.2389e+00  9.6284e+00  0.0000e+00  0.0000e+00  0.0000e+00  0.0000e+00  8.4539e+00  6.4124e+00
  4.1274e+00  3.8854e+00  5.1182e+00  6.0582e+00  6.0427e+00  6.5591e+00  5.9553e+00  7.5861e+00  7.5362e+00  9.6751e+00
  9.9904e+00  7.2818e+00  7.8913e+00  1.0545e+01  0.0000e+00  0.0000e+00  0.0000e+00  0.0000e+00  7.7509e+00  6.0078e+00
  4.3181e+00  4.4920e+00  3.3019e+00  6.8366e+00  6.0455e+00  5.9548e+00  5.8075e+00  6.9365e+00  7.1586e+00  9.4115e+00
  9.5619e+00  7.8433e+00  8.3226e+00  1.0063e+01  0.0000e+00  0.0000e+00  9.7744e+00  9.5403e+00  7.6973e+00  6.1432e+00
  4.4271e+00  3.5673e+00  4.2057e+00  5.9492e+00  6.2643e+00  5.7027e+00  6.2045e+00  8.1482e+00  7.6206e+00  8.9217e+00
  9.1912e+00  7.8730e+00  7.1552e+00  9.9308e+00  9.4254e+00  0.0000e+00  9.7986e+00  7.2515e+00  7.4621e+00  5.8178e+00
  4.1295e+00  3.9052e+00  3.3701e+00  6.6197e+00  6.1172e+00  6.3640e+00  4.6129e+00  6.7046e+00  7.4997e+00  9.4591e+00
  9.8099e+00  8.2392e+00  7.5416e+00  7.6373e+00  8.8802e+00  9.5040e+00  8.4133e+00  7.3196e+00  8.5684e+00  6.2309e+00
  4.3762e+00  4.5377e+00  4.0597e+00  6.2896e+00  6.4252e+00  4.4563e+00  6.5314e+00  5.9926e+00  8.2197e+00  7.7108e+00
  9.7839e+00  7.9547e+00  7.9225e+00  8.0044e+00  7.9356e+00  7.8557e+00  7.7037e+00  7.1835e+00  5.6309e+00  6.6817e+00
  4.5515e+00  4.4429e+00  3.5910e+00  5.8208e+00  6.5995e+00  4.1160e+00  6.1434e+00  6.5502e+00  8.0819e+00  8.1299e+00
  9.8686e+00  7.8838e+00  8.2874e+00  5.8196e+00  7.8777e+00  7.3020e+00  7.7096e+00  8.2047e+00  6.0036e+00  6.0495e+00
  4.1582e+00  4.2745e+00  4.1127e+00  6.7086e+00  6.5207e+00  4.1476e+00  6.6782e+00  6.8237e+00  8.1571e+00  7.6419e+00
  1.0152e+01  7.2394e+00  8.5614e+00  7.9200e+00  5.7365e+00  7.5559e+00  7.7680e+00  5.6220e+00  5.9397e+00  4.5097e+00
  1.4850e+00  4.6265e+00  3.9856e+00  4.2379e+00  4.3072e+00  3.9041e+00  5.3464e+00  5.4151e+00  6.3056e+00  8.2004e+00
  8.7445e+00  9.2871e+00  7.2459e+00  7.6664e+00  7.9763e+00  7.1745e+00  5.2763e+00  4.7322e+00  5.9584e+00  3.4122e+00
  3.4535e+00  4.2186e+00  4.3709e+00  4.0464e+00  4.2332e+00  3.9137e+00  4.5103e+00  6.0722e+00  6.2079e+00  6.8306e+00
  9.0539e+00  9.5455e+00  7.8563e+00  7.8138e+00  8.3538e+00  6.3542e+00  4.8866e+00  1.1483e+00  6.0108e+00  5.2788e+00
  2.8096e+00  4.7025e+00  4.5138e+00  3.7049e+00  4.6894e+00  2.3265e+00  4.0415e+00  4.1911e+00  6.3818e+00  6.6534e+00
  8.8396e+00  1.0079e+01  8.4166e+00  8.4515e+00  8.6318e+00  6.5766e+00  1.3740e+00  1.6098e+00  1.3483e+00  2.8609e+00
  2.1531e+00  4.3050e+00  4.7063e+00  4.0622e+00  4.3882e+00  2.3489e+00  3.2438e+00  4.3479e+00  4.4705e+00  5.2157e+00
  9.5740e+00  7.3658e+00  7.3577e+00  7.9637e+00  6.2695e+00  3.3881e+00  2.5564e+00  1.7003e+00  2.8400e+00  2.1364e+00
  2.7023e+00  4.1760e+00  4.7519e+00  4.3208e+00  2.8816e+00  1.3995e+00  2.2868e+00  1.8069e+00  3.9988e+00  4.1690e+00
  9.4409e+00  7.4495e+00  7.5208e+00  7.8290e+00  8.3088e+00  5.7280e+00  7.5259e-01  2.3941e+00  2.4790e+00  3.0923e+00
  2.3027e+00  2.9295e+00  4.7364e+00  4.6161e+00  1.5870e+00  1.6054e+00  2.1133e+00  1.8786e+00  4.4794e+00  4.9732e+00
  0.0000e+00  7.8769e+00  7.6301e+00  7.7468e+00  7.6194e+00  7.4298e+00  5.9580e+00  4.1262e+00  3.4694e-01  2.2926e+00
  2.1267e+00  1.7356e+00  1.5953e+00  5.1821e+00  4.3478e+00  3.9044e+00  2.2295e+00  3.9484e+00  4.1222e+00  6.4800e+00
  0.0000e+00  0.0000e+00  7.0347e+00  7.7360e+00  8.4352e+00  5.6636e+00  6.1598e+00  4.5552e+00  3.4031e+00  3.2971e+00
  2.1519e+00  2.1917e+00  1.5327e+00  4.4227e+00  3.7879e+00  4.3978e+00  3.6785e+00  4.9564e+00  5.7415e+00  7.8134e+00
  0.0000e+00  0.0000e+00  0.0000e+00  5.7182e+00  6.6049e+00  5.5852e+00  5.2680e+00  6.6867e+00  3.4692e+00  2.2726e+00
  1.9186e+00  1.2421e+00  3.3538e+00  3.9557e+00  4.2253e+00  4.6616e+00  4.2819e+00  4.0103e+00  6.6307e+00  7.6496e+00
  0.0000e+00  0.0000e+00  0.0000e+00  0.0000e+00  6.4357e+00  6.4080e+00  6.1579e+00  4.5245e+00  4.2212e+00  1.3726e+00
  2.1997e+00  1.8258e+00  2.3258e+00  4.6437e+00  4.2925e+00  4.0453e+00  4.0712e+00  5.7663e+00  8.7558e+00  0.0000e+00
  0.0000e+00  0.0000e+00  0.0000e+00  0.0000e+00  7.5343e+00  6.1987e+00  5.5933e+00  4.6774e+00  4.4375e+00  2.2364e+00
  2.2703e+00  2.5660e+00  1.7566e+00  4.4628e+00  3.5373e+00  4.4022e+00  6.4227e+00  6.1448e+00  7.6075e+00  0.0000e+00
  0.0000e+00  0.0000e+00  0.0000e+00  0.0000e+00  0.0000e+00  6.4310e+00  5.9599e+00  4.1312e+00  5.3724e+00  1.3743e+00
  1.7618e+00  2.3486e+00  1.4918e+00  1.7999e+00  2.4664e+00  4.7121e+00  4.3845e+00  5.4511e+00  0.0000e+00  0.0000e+00
  0.0000e+00  0.0000e+00  0.0000e+00  0.0000e+00  0.0000e+00  5.9438e+00  6.8043e+00  5.6455e+00  4.5430e+00  2.0144e+00
  2.1075e+00  2.5272e+00  2.3782e+00  1.5524e+00  2.8219e+00  3.6665e+00  5.4799e+00  0.0000e+00  0.0000e+00  0.0000e+00
  0.0000e+00  0.0000e+00  0.0000e+00  0.0000e+00  0.0000e+00  8.1865e+00  4.5922e+00  4.4139e+00  2.2801e+00  2.4732e+00
  2.0638e+00  1.3910e+00  1.5461e+00  1.3122e+00  3.9885e+00  0.0000e+00  0.0000e+00  0.0000e+00  0.0000e+00  0.0000e+00
